REMARK  10 active torsions:
REMARK  status: ('A' for Active; 'I' for Inactive)
REMARK    1  A    between atoms: C2_2  and  C3_3 
REMARK    2  A    between atoms: C3_3  and  N1_4 
REMARK    3  A    between atoms: C8_9  and  C9_10 
REMARK    4  A    between atoms: C9_10  and  C10_11 
REMARK    5  A    between atoms: C10_11  and  N2_12 
REMARK    6  A    between atoms: N2_12  and  C11_13 
REMARK    7  A    between atoms: C11_13  and  C12_14 
REMARK    8  A    between atoms: C20_24  and  S1_25 
REMARK    9  A    between atoms: S1_25  and  C21_26 
REMARK   10  A    between atoms: C21_26  and  C22_27 
ROOT
HETATM    1  C12 UNL     1      -0.404   0.297  -2.251  1.00  0.00     0.006 A 
HETATM    2  C13 UNL     1      -0.847   1.102  -3.313  1.00  0.00     0.025 A 
HETATM    3  C14 UNL     1      -2.215   1.246  -3.567  1.00  0.00    -0.005 A 
HETATM    4  C15 UNL     1      -2.680   2.052  -4.617  1.00  0.00     0.032 A 
HETATM    5  C16 UNL     1      -4.055   2.185  -4.841  1.00  0.00     0.011 A 
HETATM    6 BR1  UNL     1      -4.687   3.283  -6.269  1.00  0.00    -0.051 Br
HETATM    7  C17 UNL     1      -4.968   1.514  -4.019  1.00  0.00     0.021 A 
HETATM    8  C18 UNL     1      -4.511   0.709  -2.971  1.00  0.00     0.034 A 
HETATM    9  C19 UNL     1      -3.138   0.572  -2.741  1.00  0.00     0.068 A 
HETATM   10  N3  UNL     1      -2.691  -0.209  -1.724  1.00  0.00    -0.241 NA
HETATM   11  C20 UNL     1      -1.367  -0.376  -1.465  1.00  0.00     0.102 A 
ENDROOT
BRANCH   1  12
HETATM   12  C11 UNL     1       1.074   0.195  -1.962  1.00  0.00     0.311 C 
BRANCH  12  13
HETATM   13  N2  UNL     1       1.377   0.818  -0.669  1.00  0.00     0.087 N 
HETATM   14  H21 UNL     1       1.225   1.849  -0.772  1.00  0.00     0.316 HD
BRANCH  13  15
HETATM   15  C10 UNL     1       2.777   0.588  -0.267  1.00  0.00     0.270 C 
BRANCH  15  16
HETATM   16  C9  UNL     1       2.830  -0.112   1.102  1.00  0.00     0.034 C 
BRANCH  16  17
HETATM   17  C8  UNL     1       2.909   0.869   2.302  1.00  0.00    -0.010 C 
HETATM   18  C5  UNL     1       1.653   1.747   2.453  1.00  0.00     0.035 C 
HETATM   19  C4  UNL     1       0.409   0.925   2.854  1.00  0.00     0.272 C 
HETATM   20  N1  UNL     1       0.743  -0.322   3.590  1.00  0.00     0.088 N 
HETATM   21  C6  UNL     1       1.915  -0.127   4.466  1.00  0.00     0.272 C 
HETATM   22  C7  UNL     1       3.185   0.116   3.629  1.00  0.00     0.035 C 
BRANCH  20  23
HETATM   23  C3  UNL     1      -0.410  -0.807   4.381  1.00  0.00     0.272 C 
BRANCH  23  24
HETATM   24  C2  UNL     1      -1.507  -1.377   3.472  1.00  0.00     0.026 C 
HETATM   25  C1  UNL     1      -2.651  -1.970   4.289  1.00  0.00     0.007 C 
ENDBRANCH  23  24
ENDBRANCH  20  23
ENDBRANCH  16  17
ENDBRANCH  15  16
ENDBRANCH  13  15
ENDBRANCH  12  13
ENDBRANCH   1  12
BRANCH  11  26
HETATM   26  S1  UNL     1      -0.902  -1.448  -0.097  1.00  0.00    -0.105 SA
BRANCH  26  27
HETATM   27  C21 UNL     1      -1.135  -3.007  -1.020  1.00  0.00     0.119 C 
BRANCH  27  28
HETATM   28  C22 UNL     1       0.043  -3.277  -1.911  1.00  0.00    -0.049 A 
HETATM   29  C23 UNL     1      -0.083  -3.182  -3.308  1.00  0.00     0.008 A 
HETATM   30  C24 UNL     1       1.025  -3.407  -4.130  1.00  0.00     0.001 A 
HETATM   31  C25 UNL     1       2.261  -3.734  -3.566  1.00  0.00     0.000 A 
HETATM   32  C26 UNL     1       2.392  -3.838  -2.179  1.00  0.00     0.001 A 
HETATM   33  C27 UNL     1       1.288  -3.612  -1.352  1.00  0.00     0.008 A 
ENDBRANCH  27  28
ENDBRANCH  26  27
ENDBRANCH  11  26
TORSDOF 10
