MODEL 1
REMARK VINA RESULT:      -7.7      0.000      0.000
REMARK  9 active torsions:
REMARK  status: ('A' for Active; 'I' for Inactive)
REMARK    1  A    between atoms: C_4  and  S_28 
REMARK    2  A    between atoms: C_5  and  C_7 
REMARK    3  A    between atoms: C_7  and  N_8 
REMARK    4  A    between atoms: N_8  and  C_9 
REMARK    5  A    between atoms: C_9  and  C_10 
REMARK    6  A    between atoms: C_10  and  C_11 
REMARK    7  A    between atoms: N_14  and  C_17 
REMARK    8  A    between atoms: S_28  and  C_35 
REMARK    9  A    between atoms: C_29  and  C_35 
ROOT
HETATM    1  C           1     168.707 188.791 287.798  0.00  0.00    -0.008 A 
HETATM    2  C           1     168.475 189.141 289.119  0.00  0.00     0.130 A 
HETATM    3  N           1     168.533 188.270 290.149  0.00  0.00    -0.253 NA
HETATM    4  C           1     168.837 186.990 289.842  0.00  0.00     0.101 A 
HETATM    5  C           1     169.085 186.544 288.554  0.00  0.00     0.006 A 
HETATM    6  C           1     169.018 187.465 287.514  0.00  0.00     0.025 A 
HETATM    7  C           1     168.634 189.703 286.823  0.00  0.00    -0.024 A 
HETATM    8  C           1     168.698 191.062 287.132  0.00  0.00     0.014 A 
HETATM    9  C           1     168.621 192.013 286.116  0.00  0.00     0.030 A 
HETATM   10  C           1     168.482 191.606 284.789  0.00  0.00     0.029 A 
HETATM   11  C           1     168.419 190.248 284.479  0.00  0.00     0.030 A 
HETATM   12  C           1     168.495 189.296 285.496  0.00  0.00     0.014 A 
HETATM   13  N           1     168.413 192.469 283.865  0.00  0.00    -0.390 N 
HETATM   14  C           1     168.267 192.040 282.467  0.00  0.00     0.149 C 
HETATM   15  C           1     168.479 193.901 284.192  0.00  0.00     0.149 C 
ENDROOT
BRANCH   5  16
HETATM   16  C           1     169.417 185.109 288.288  0.00  0.00     0.308 C 
BRANCH  16  17
HETATM   17  N           1     170.845 184.939 288.281  0.00  0.00     0.087 N 
HETATM   18  H           1     171.288 185.771 288.671  0.00  0.00     0.316 HD
BRANCH  17  19
HETATM   19  C           1     171.259 184.773 286.914  0.00  0.00     0.270 C 
BRANCH  19  20
HETATM   20  C           1     172.779 184.825 286.834  0.00  0.00     0.034 C 
BRANCH  20  21
HETATM   21  C           1     173.198 185.812 285.752  0.00  0.00    -0.010 C 
HETATM   22  C           1     172.837 185.240 284.385  0.00  0.00     0.035 C 
HETATM   23  C           1     173.058 186.270 283.279  0.00  0.00     0.272 C 
HETATM   24  N           1     172.321 187.506 283.544  0.00  0.00     0.088 N 
HETATM   25  C           1     172.718 188.103 284.820  0.00  0.00     0.272 C 
HETATM   26  C           1     172.484 187.141 285.982  0.00  0.00     0.035 C 
BRANCH  24  27
HETATM   27  C           1     172.694 188.422 282.499  0.00  0.00     0.268 C 
HETATM   28  C           1     173.963 189.161 282.900  0.00  0.00     0.037 C 
ENDBRANCH  24  27
ENDBRANCH  20  21
ENDBRANCH  19  20
ENDBRANCH  17  19
ENDBRANCH  16  17
ENDBRANCH   5  16
BRANCH   4  29
HETATM   29  S           1     168.925 185.784 291.196  0.00  0.00    -0.105 SA
BRANCH  29  30
HETATM   30  C           1     170.255 186.665 292.064  0.00  0.00     0.122 C 
BRANCH  30  31
HETATM   31  C           1     171.570 186.326 291.437  0.00  0.00    -0.049 A 
HETATM   32  C           1     172.149 187.198 290.514  0.00  0.00     0.008 A 
HETATM   33  C           1     173.374 186.881 289.929  0.00  0.00     0.001 A 
HETATM   34  C           1     174.024 185.694 290.267  0.00  0.00     0.000 A 
HETATM   35  C           1     173.446 184.822 291.190  0.00  0.00     0.001 A 
HETATM   36  C           1     172.219 185.139 291.775  0.00  0.00     0.008 A 
ENDBRANCH  30  31
ENDBRANCH  29  30
ENDBRANCH   4  29
TORSDOF 9
ENDMDL
MODEL 2
REMARK VINA RESULT:      -7.5     16.472     21.585
REMARK  9 active torsions:
REMARK  status: ('A' for Active; 'I' for Inactive)
REMARK    1  A    between atoms: C_4  and  S_28 
REMARK    2  A    between atoms: C_5  and  C_7 
REMARK    3  A    between atoms: C_7  and  N_8 
REMARK    4  A    between atoms: N_8  and  C_9 
REMARK    5  A    between atoms: C_9  and  C_10 
REMARK    6  A    between atoms: C_10  and  C_11 
REMARK    7  A    between atoms: N_14  and  C_17 
REMARK    8  A    between atoms: S_28  and  C_35 
REMARK    9  A    between atoms: C_29  and  C_35 
ROOT
HETATM    1  C           1     176.418 183.926 265.531  0.00  0.00    -0.008 A 
HETATM    2  C           1     175.453 184.827 265.109  0.00  0.00     0.130 A 
HETATM    3  N           1     174.702 185.573 265.948  0.00  0.00    -0.253 NA
HETATM    4  C           1     174.929 185.409 267.270  0.00  0.00     0.101 A 
HETATM    5  C           1     175.870 184.534 267.788  0.00  0.00     0.006 A 
HETATM    6  C           1     176.628 183.780 266.899  0.00  0.00     0.025 A 
HETATM    7  C           1     177.128 183.216 264.648  0.00  0.00    -0.024 A 
HETATM    8  C           1     177.188 183.623 263.315  0.00  0.00     0.014 A 
HETATM    9  C           1     177.928 182.882 262.393  0.00  0.00     0.030 A 
HETATM   10  C           1     178.609 181.737 262.805  0.00  0.00     0.029 A 
HETATM   11  C           1     178.549 181.331 264.138  0.00  0.00     0.030 A 
HETATM   12  C           1     177.808 182.071 265.060  0.00  0.00     0.014 A 
HETATM   13  N           1     179.281 181.064 261.969  0.00  0.00    -0.390 N 
HETATM   14  C           1     179.999 179.857 262.403  0.00  0.00     0.149 C 
HETATM   15  C           1     179.344 181.492 260.564  0.00  0.00     0.149 C 
ENDROOT
BRANCH   5  16
HETATM   16  C           1     176.068 184.405 269.266  0.00  0.00     0.308 C 
BRANCH  16  17
HETATM   17  N           1     175.432 183.203 269.733  0.00  0.00     0.087 N 
HETATM   18  H           1     174.627 182.994 269.144  0.00  0.00     0.316 HD
BRANCH  17  19
HETATM   19  C           1     174.991 183.436 271.082  0.00  0.00     0.270 C 
BRANCH  19  20
HETATM   20  C           1     175.293 184.876 271.474  0.00  0.00     0.034 C 
BRANCH  20  21
HETATM   21  C           1     175.888 184.909 272.876  0.00  0.00    -0.010 C 
HETATM   22  C           1     176.795 186.127 273.007  0.00  0.00     0.035 C 
HETATM   23  C           1     177.264 186.315 274.449  0.00  0.00     0.272 C 
HETATM   24  N           1     176.132 186.399 275.373  0.00  0.00     0.088 N 
HETATM   25  C           1     175.298 185.198 275.308  0.00  0.00     0.272 C 
HETATM   26  C           1     174.758 184.969 273.899  0.00  0.00     0.035 C 
BRANCH  24  27
HETATM   27  C           1     176.701 186.465 276.693  0.00  0.00     0.268 C 
HETATM   28  C           1     177.963 185.614 276.745  0.00  0.00     0.037 C 
ENDBRANCH  24  27
ENDBRANCH  20  21
ENDBRANCH  19  20
ENDBRANCH  17  19
ENDBRANCH  16  17
ENDBRANCH   5  16
BRANCH   4  29
HETATM   29  S           1     173.943 186.392 268.435  0.00  0.00    -0.105 SA
BRANCH  29  30
HETATM   30  C           1     174.413 187.980 267.691  0.00  0.00     0.122 C 
BRANCH  30  31
HETATM   31  C           1     173.181 188.771 267.381  0.00  0.00    -0.049 A 
HETATM   32  C           1     173.094 190.108 267.767  0.00  0.00     0.008 A 
HETATM   33  C           1     171.946 190.845 267.479  0.00  0.00     0.001 A 
HETATM   34  C           1     170.884 190.245 266.803  0.00  0.00     0.000 A 
HETATM   35  C           1     170.970 188.907 266.416  0.00  0.00     0.001 A 
HETATM   36  C           1     172.119 188.170 266.706  0.00  0.00     0.008 A 
ENDBRANCH  30  31
ENDBRANCH  29  30
ENDBRANCH   4  29
TORSDOF 9
ENDMDL
MODEL 3
REMARK VINA RESULT:      -7.4     15.025     20.009
REMARK  9 active torsions:
REMARK  status: ('A' for Active; 'I' for Inactive)
REMARK    1  A    between atoms: C_4  and  S_28 
REMARK    2  A    between atoms: C_5  and  C_7 
REMARK    3  A    between atoms: C_7  and  N_8 
REMARK    4  A    between atoms: N_8  and  C_9 
REMARK    5  A    between atoms: C_9  and  C_10 
REMARK    6  A    between atoms: C_10  and  C_11 
REMARK    7  A    between atoms: N_14  and  C_17 
REMARK    8  A    between atoms: S_28  and  C_35 
REMARK    9  A    between atoms: C_29  and  C_35 
ROOT
HETATM    1  C           1     175.048 184.844 270.766  0.00  0.00    -0.008 A 
HETATM    2  C           1     176.122 184.557 269.938  0.00  0.00     0.130 A 
HETATM    3  N           1     176.000 184.228 268.634  0.00  0.00    -0.253 NA
HETATM    4  C           1     174.745 184.183 268.137  0.00  0.00     0.101 A 
HETATM    5  C           1     173.609 184.452 268.884  0.00  0.00     0.006 A 
HETATM    6  C           1     173.768 184.789 270.224  0.00  0.00     0.025 A 
HETATM    7  C           1     175.237 185.164 272.050  0.00  0.00    -0.024 A 
HETATM    8  C           1     176.495 185.580 272.488  0.00  0.00     0.014 A 
HETATM    9  C           1     176.692 185.913 273.827  0.00  0.00     0.030 A 
HETATM   10  C           1     175.632 185.832 274.729  0.00  0.00     0.029 A 
HETATM   11  C           1     174.374 185.417 274.292  0.00  0.00     0.030 A 
HETATM   12  C           1     174.176 185.083 272.952  0.00  0.00     0.014 A 
HETATM   13  N           1     175.810 186.134 275.945  0.00  0.00    -0.390 N 
HETATM   14  C           1     174.692 186.049 276.896  0.00  0.00     0.149 C 
HETATM   15  C           1     177.136 186.572 276.406  0.00  0.00     0.149 C 
ENDROOT
BRANCH   5  16
HETATM   16  C           1     172.248 184.384 268.265  0.00  0.00     0.308 C 
BRANCH  16  17
HETATM   17  N           1     171.691 185.707 268.181  0.00  0.00     0.087 N 
HETATM   18  H           1     170.782 185.723 268.642  0.00  0.00     0.316 HD
BRANCH  17  19
HETATM   19  C           1     171.529 186.026 266.789  0.00  0.00     0.270 C 
BRANCH  19  20
HETATM   20  C           1     172.588 187.038 266.372  0.00  0.00     0.034 C 
BRANCH  20  21
HETATM   21  C           1     173.015 187.857 267.583  0.00  0.00    -0.010 C 
HETATM   22  C           1     174.532 187.783 267.728  0.00  0.00     0.035 C 
HETATM   23  C           1     175.032 188.740 268.808  0.00  0.00     0.272 C 
HETATM   24  N           1     174.593 190.113 268.551  0.00  0.00     0.088 N 
HETATM   25  C           1     173.134 190.205 268.487  0.00  0.00     0.272 C 
HETATM   26  C           1     172.564 189.302 267.395  0.00  0.00     0.035 C 
BRANCH  24  27
HETATM   27  C           1     175.031 190.887 269.681  0.00  0.00     0.268 C 
HETATM   28  C           1     175.732 189.977 270.681  0.00  0.00     0.037 C 
ENDBRANCH  24  27
ENDBRANCH  20  21
ENDBRANCH  19  20
ENDBRANCH  17  19
ENDBRANCH  16  17
ENDBRANCH   5  16
BRANCH   4  29
HETATM   29  S           1     174.533 183.744 266.388  0.00  0.00    -0.105 SA
BRANCH  29  30
HETATM   30  C           1     176.080 184.540 265.869  0.00  0.00     0.122 C 
BRANCH  30  31
HETATM   31  C           1     176.814 183.639 264.927  0.00  0.00    -0.049 A 
HETATM   32  C           1     177.434 182.484 265.405  0.00  0.00     0.008 A 
HETATM   33  C           1     178.119 181.645 264.528  0.00  0.00     0.001 A 
HETATM   34  C           1     178.184 181.958 263.170  0.00  0.00     0.000 A 
HETATM   35  C           1     177.564 183.113 262.691  0.00  0.00     0.001 A 
HETATM   36  C           1     176.879 183.953 263.570  0.00  0.00     0.008 A 
ENDBRANCH  30  31
ENDBRANCH  29  30
ENDBRANCH   4  29
TORSDOF 9
ENDMDL
MODEL 4
REMARK VINA RESULT:      -7.4     14.509     19.347
REMARK  9 active torsions:
REMARK  status: ('A' for Active; 'I' for Inactive)
REMARK    1  A    between atoms: C_4  and  S_28 
REMARK    2  A    between atoms: C_5  and  C_7 
REMARK    3  A    between atoms: C_7  and  N_8 
REMARK    4  A    between atoms: N_8  and  C_9 
REMARK    5  A    between atoms: C_9  and  C_10 
REMARK    6  A    between atoms: C_10  and  C_11 
REMARK    7  A    between atoms: N_14  and  C_17 
REMARK    8  A    between atoms: S_28  and  C_35 
REMARK    9  A    between atoms: C_29  and  C_35 
ROOT
HETATM    1  C           1     175.768 184.087 268.406  0.00  0.00    -0.008 A 
HETATM    2  C           1     175.499 183.438 269.600  0.00  0.00     0.130 A 
HETATM    3  N           1     175.050 184.062 270.711  0.00  0.00    -0.253 NA
HETATM    4  C           1     174.863 185.397 270.620  0.00  0.00     0.101 A 
HETATM    5  C           1     175.105 186.133 269.472  0.00  0.00     0.006 A 
HETATM    6  C           1     175.566 185.462 268.344  0.00  0.00     0.025 A 
HETATM    7  C           1     176.211 183.410 267.341  0.00  0.00    -0.024 A 
HETATM    8  C           1     176.056 182.024 267.282  0.00  0.00     0.014 A 
HETATM    9  C           1     176.518 181.318 266.172  0.00  0.00     0.030 A 
HETATM   10  C           1     177.133 181.996 265.120  0.00  0.00     0.029 A 
HETATM   11  C           1     177.287 183.382 265.179  0.00  0.00     0.030 A 
HETATM   12  C           1     176.826 184.088 266.289  0.00  0.00     0.014 A 
HETATM   13  N           1     177.553 181.356 264.112  0.00  0.00    -0.390 N 
HETATM   14  C           1     178.201 182.071 263.004  0.00  0.00     0.149 C 
HETATM   15  C           1     177.390 179.896 264.051  0.00  0.00     0.149 C 
ENDROOT
BRANCH   5  16
HETATM   16  C           1     174.875 187.612 269.444  0.00  0.00     0.308 C 
BRANCH  16  17
HETATM   17  N           1     175.070 188.104 268.107  0.00  0.00     0.087 N 
HETATM   18  H           1     175.982 187.804 267.764  0.00  0.00     0.316 HD
BRANCH  17  19
HETATM   19  C           1     175.026 189.540 268.158  0.00  0.00     0.270 C 
BRANCH  19  20
HETATM   20  C           1     175.470 190.014 269.536  0.00  0.00     0.034 C 
BRANCH  20  21
HETATM   21  C           1     174.726 191.292 269.899  0.00  0.00    -0.010 C 
HETATM   22  C           1     173.305 190.940 270.327  0.00  0.00     0.035 C 
HETATM   23  C           1     172.577 192.161 270.886  0.00  0.00     0.272 C 
HETATM   24  N           1     173.323 192.771 271.987  0.00  0.00     0.088 N 
HETATM   25  C           1     174.662 193.182 271.564  0.00  0.00     0.272 C 
HETATM   26  C           1     175.467 191.999 271.030  0.00  0.00     0.035 C 
BRANCH  24  27
HETATM   27  C           1     172.596 193.959 272.350  0.00  0.00     0.268 C 
HETATM   28  C           1     171.568 194.274 271.271  0.00  0.00     0.037 C 
ENDBRANCH  24  27
ENDBRANCH  20  21
ENDBRANCH  19  20
ENDBRANCH  17  19
ENDBRANCH  16  17
ENDBRANCH   5  16
BRANCH   4  29
HETATM   29  S           1     174.262 186.277 272.089  0.00  0.00    -0.105 SA
BRANCH  29  30
HETATM   30  C           1     174.615 184.899 273.217  0.00  0.00     0.122 C 
BRANCH  30  31
HETATM   31  C           1     175.722 185.285 274.147  0.00  0.00    -0.049 A 
HETATM   32  C           1     175.672 184.905 275.488  0.00  0.00     0.008 A 
HETATM   33  C           1     176.702 185.266 276.355  0.00  0.00     0.001 A 
HETATM   34  C           1     177.785 186.007 275.882  0.00  0.00     0.000 A 
HETATM   35  C           1     177.835 186.388 274.541  0.00  0.00     0.001 A 
HETATM   36  C           1     176.804 186.027 273.674  0.00  0.00     0.008 A 
ENDBRANCH  30  31
ENDBRANCH  29  30
ENDBRANCH   4  29
TORSDOF 9
ENDMDL
MODEL 5
REMARK VINA RESULT:      -7.2      1.685      5.789
REMARK  9 active torsions:
REMARK  status: ('A' for Active; 'I' for Inactive)
REMARK    1  A    between atoms: C_4  and  S_28 
REMARK    2  A    between atoms: C_5  and  C_7 
REMARK    3  A    between atoms: C_7  and  N_8 
REMARK    4  A    between atoms: N_8  and  C_9 
REMARK    5  A    between atoms: C_9  and  C_10 
REMARK    6  A    between atoms: C_10  and  C_11 
REMARK    7  A    between atoms: N_14  and  C_17 
REMARK    8  A    between atoms: S_28  and  C_35 
REMARK    9  A    between atoms: C_29  and  C_35 
ROOT
HETATM    1  C           1     172.586 186.675 286.406  0.00  0.00    -0.008 A 
HETATM    2  C           1     173.252 185.658 287.071  0.00  0.00     0.130 A 
HETATM    3  N           1     173.278 185.529 288.415  0.00  0.00    -0.253 NA
HETATM    4  C           1     172.606 186.462 289.125  0.00  0.00     0.101 A 
HETATM    5  C           1     171.913 187.516 288.551  0.00  0.00     0.006 A 
HETATM    6  C           1     171.905 187.621 287.164  0.00  0.00     0.025 A 
HETATM    7  C           1     172.600 186.745 285.071  0.00  0.00    -0.024 A 
HETATM    8  C           1     172.948 185.625 284.316  0.00  0.00     0.014 A 
HETATM    9  C           1     172.963 185.698 282.924  0.00  0.00     0.030 A 
HETATM   10  C           1     172.627 186.892 282.285  0.00  0.00     0.029 A 
HETATM   11  C           1     172.278 188.012 283.039  0.00  0.00     0.030 A 
HETATM   12  C           1     172.265 187.939 284.432  0.00  0.00     0.014 A 
HETATM   13  N           1     172.640 186.959 281.021  0.00  0.00    -0.390 N 
HETATM   14  C           1     172.286 188.217 280.348  0.00  0.00     0.149 C 
HETATM   15  C           1     173.008 185.778 280.227  0.00  0.00     0.149 C 
ENDROOT
BRANCH   5  16
HETATM   16  C           1     171.190 188.514 289.401  0.00  0.00     0.308 C 
BRANCH  16  17
HETATM   17  N           1     169.773 188.384 289.194  0.00  0.00     0.087 N 
HETATM   18  H           1     169.585 187.553 288.635  0.00  0.00     0.316 HD
BRANCH  17  19
HETATM   19  C           1     169.325 189.551 288.484  0.00  0.00     0.270 C 
BRANCH  19  20
HETATM   20  C           1     168.430 189.130 287.326  0.00  0.00     0.034 C 
BRANCH  20  21
HETATM   21  C           1     168.213 190.314 286.393  0.00  0.00    -0.010 C 
HETATM   22  C           1     168.679 191.590 287.086  0.00  0.00     0.035 C 
HETATM   23  C           1     168.664 192.778 286.126  0.00  0.00     0.272 C 
HETATM   24  N           1     169.460 192.509 284.929  0.00  0.00     0.088 N 
HETATM   25  C           1     168.971 191.329 284.215  0.00  0.00     0.272 C 
HETATM   26  C           1     168.997 190.087 285.104  0.00  0.00     0.035 C 
BRANCH  24  27
HETATM   27  C           1     169.279 193.647 284.067  0.00  0.00     0.268 C 
HETATM   28  C           1     169.089 194.899 284.912  0.00  0.00     0.037 C 
ENDBRANCH  24  27
ENDBRANCH  20  21
ENDBRANCH  19  20
ENDBRANCH  17  19
ENDBRANCH  16  17
ENDBRANCH   5  16
BRANCH   4  29
HETATM   29  S           1     172.614 186.330 290.935  0.00  0.00    -0.105 SA
BRANCH  29  30
HETATM   30  C           1     171.062 185.391 291.001  0.00  0.00     0.122 C 
BRANCH  30  31
HETATM   31  C           1     170.108 186.068 291.934  0.00  0.00    -0.049 A 
HETATM   32  C           1     170.581 186.676 293.096  0.00  0.00     0.008 A 
HETATM   33  C           1     169.692 187.306 293.966  0.00  0.00     0.001 A 
HETATM   34  C           1     168.329 187.331 293.674  0.00  0.00     0.000 A 
HETATM   35  C           1     167.854 186.723 292.511  0.00  0.00     0.001 A 
HETATM   36  C           1     168.744 186.092 291.641  0.00  0.00     0.008 A 
ENDBRANCH  30  31
ENDBRANCH  29  30
ENDBRANCH   4  29
TORSDOF 9
ENDMDL
MODEL 6
REMARK VINA RESULT:      -7.2     10.116     14.865
REMARK  9 active torsions:
REMARK  status: ('A' for Active; 'I' for Inactive)
REMARK    1  A    between atoms: C_4  and  S_28 
REMARK    2  A    between atoms: C_5  and  C_7 
REMARK    3  A    between atoms: C_7  and  N_8 
REMARK    4  A    between atoms: N_8  and  C_9 
REMARK    5  A    between atoms: C_9  and  C_10 
REMARK    6  A    between atoms: C_10  and  C_11 
REMARK    7  A    between atoms: N_14  and  C_17 
REMARK    8  A    between atoms: S_28  and  C_35 
REMARK    9  A    between atoms: C_29  and  C_35 
ROOT
HETATM    1  C           1     173.693 186.951 277.730  0.00  0.00    -0.008 A 
HETATM    2  C           1     172.464 186.940 277.090  0.00  0.00     0.130 A 
HETATM    3  N           1     172.304 187.150 275.765  0.00  0.00    -0.253 NA
HETATM    4  C           1     173.427 187.381 275.050  0.00  0.00     0.101 A 
HETATM    5  C           1     174.698 187.413 275.600  0.00  0.00     0.006 A 
HETATM    6  C           1     174.830 187.192 276.967  0.00  0.00     0.025 A 
HETATM    7  C           1     173.782 186.736 279.047  0.00  0.00    -0.024 A 
HETATM    8  C           1     172.724 186.135 279.729  0.00  0.00     0.014 A 
HETATM    9  C           1     172.817 185.911 281.102  0.00  0.00     0.030 A 
HETATM   10  C           1     173.969 186.286 281.793  0.00  0.00     0.029 A 
HETATM   11  C           1     175.028 186.886 281.111  0.00  0.00     0.030 A 
HETATM   12  C           1     174.934 187.111 279.738  0.00  0.00     0.014 A 
HETATM   13  N           1     174.055 186.082 283.040  0.00  0.00    -0.390 N 
HETATM   14  C           1     175.269 186.477 283.768  0.00  0.00     0.149 C 
HETATM   15  C           1     172.939 185.450 283.759  0.00  0.00     0.149 C 
ENDROOT
BRANCH   5  16
HETATM   16  C           1     175.899 187.675 274.745  0.00  0.00     0.308 C 
BRANCH  16  17
HETATM   17  N           1     176.677 186.471 274.627  0.00  0.00     0.087 N 
HETATM   18  H           1     177.607 186.629 275.016  0.00  0.00     0.316 HD
BRANCH  17  19
HETATM   19  C           1     176.789 186.157 273.229  0.00  0.00     0.270 C 
BRANCH  19  20
HETATM   20  C           1     175.803 185.052 272.875  0.00  0.00     0.034 C 
BRANCH  20  21
HETATM   21  C           1     175.981 184.659 271.414  0.00  0.00    -0.010 C 
HETATM   22  C           1     175.365 183.283 271.187  0.00  0.00     0.035 C 
HETATM   23  C           1     175.343 182.925 269.702  0.00  0.00     0.272 C 
HETATM   24  N           1     174.653 183.947 268.915  0.00  0.00     0.088 N 
HETATM   25  C           1     175.286 185.258 269.068  0.00  0.00     0.272 C 
HETATM   26  C           1     175.306 185.702 270.529  0.00  0.00     0.035 C 
BRANCH  24  27
HETATM   27  C           1     174.794 183.552 267.539  0.00  0.00     0.268 C 
HETATM   28  C           1     175.988 182.617 267.399  0.00  0.00     0.037 C 
ENDBRANCH  24  27
ENDBRANCH  20  21
ENDBRANCH  19  20
ENDBRANCH  17  19
ENDBRANCH  16  17
ENDBRANCH   5  16
BRANCH   4  29
HETATM   29  S           1     173.260 187.670 273.266  0.00  0.00    -0.105 SA
BRANCH  29  30
HETATM   30  C           1     173.142 189.473 273.439  0.00  0.00     0.122 C 
BRANCH  30  31
HETATM   31  C           1     173.985 190.131 272.392  0.00  0.00    -0.049 A 
HETATM   32  C           1     173.872 191.503 272.165  0.00  0.00     0.008 A 
HETATM   33  C           1     174.656 192.116 271.189  0.00  0.00     0.001 A 
HETATM   34  C           1     175.556 191.358 270.439  0.00  0.00     0.000 A 
HETATM   35  C           1     175.669 189.986 270.665  0.00  0.00     0.001 A 
HETATM   36  C           1     174.884 189.373 271.641  0.00  0.00     0.008 A 
ENDBRANCH  30  31
ENDBRANCH  29  30
ENDBRANCH   4  29
TORSDOF 9
ENDMDL
MODEL 7
REMARK VINA RESULT:      -7.1      3.303      9.031
REMARK  9 active torsions:
REMARK  status: ('A' for Active; 'I' for Inactive)
REMARK    1  A    between atoms: C_4  and  S_28 
REMARK    2  A    between atoms: C_5  and  C_7 
REMARK    3  A    between atoms: C_7  and  N_8 
REMARK    4  A    between atoms: N_8  and  C_9 
REMARK    5  A    between atoms: C_9  and  C_10 
REMARK    6  A    between atoms: C_10  and  C_11 
REMARK    7  A    between atoms: N_14  and  C_17 
REMARK    8  A    between atoms: S_28  and  C_35 
REMARK    9  A    between atoms: C_29  and  C_35 
ROOT
HETATM    1  C           1     173.443 186.766 285.953  0.00  0.00    -0.008 A 
HETATM    2  C           1     174.006 185.648 285.358  0.00  0.00     0.130 A 
HETATM    3  N           1     174.408 185.604 284.070  0.00  0.00    -0.253 NA
HETATM    4  C           1     174.239 186.731 283.345  0.00  0.00     0.101 A 
HETATM    5  C           1     173.686 187.897 283.849  0.00  0.00     0.006 A 
HETATM    6  C           1     173.281 187.911 285.180  0.00  0.00     0.025 A 
HETATM    7  C           1     173.065 186.744 287.235  0.00  0.00    -0.024 A 
HETATM    8  C           1     173.558 185.758 288.091  0.00  0.00     0.014 A 
HETATM    9  C           1     173.163 185.735 289.429  0.00  0.00     0.030 A 
HETATM   10  C           1     172.277 186.698 289.911  0.00  0.00     0.029 A 
HETATM   11  C           1     171.785 187.684 289.056  0.00  0.00     0.030 A 
HETATM   12  C           1     172.179 187.707 287.718  0.00  0.00     0.014 A 
HETATM   13  N           1     171.919 186.678 291.125  0.00  0.00    -0.390 N 
HETATM   14  C           1     170.985 187.693 291.633  0.00  0.00     0.149 C 
HETATM   15  C           1     172.438 185.639 292.026  0.00  0.00     0.149 C 
ENDROOT
BRANCH   5  16
HETATM   16  C           1     173.528 189.109 282.986  0.00  0.00     0.308 C 
BRANCH  16  17
HETATM   17  N           1     172.136 189.313 282.692  0.00  0.00     0.087 N 
HETATM   18  H           1     171.919 188.912 281.781  0.00  0.00     0.316 HD
BRANCH  17  19
HETATM   19  C           1     171.898 190.731 282.660  0.00  0.00     0.270 C 
BRANCH  19  20
HETATM   20  C           1     170.528 191.003 282.053  0.00  0.00     0.034 C 
BRANCH  20  21
HETATM   21  C           1     169.800 192.049 282.887  0.00  0.00    -0.010 C 
HETATM   22  C           1     168.932 191.346 283.925  0.00  0.00     0.035 C 
HETATM   23  C           1     168.331 192.345 284.911  0.00  0.00     0.272 C 
HETATM   24  N           1     169.368 193.154 285.553  0.00  0.00     0.088 N 
HETATM   25  C           1     170.157 193.893 284.566  0.00  0.00     0.272 C 
HETATM   26  C           1     170.825 192.951 283.567  0.00  0.00     0.035 C 
BRANCH  24  27
HETATM   27  C           1     168.675 194.117 286.367  0.00  0.00     0.268 C 
HETATM   28  C           1     169.341 195.478 286.222  0.00  0.00     0.037 C 
ENDBRANCH  24  27
ENDBRANCH  20  21
ENDBRANCH  19  20
ENDBRANCH  17  19
ENDBRANCH  16  17
ENDBRANCH   5  16
BRANCH   4  29
HETATM   29  S           1     174.765 186.717 281.607  0.00  0.00    -0.105 SA
BRANCH  29  30
HETATM   30  C           1     173.146 186.178 280.989  0.00  0.00     0.122 C 
BRANCH  30  31
HETATM   31  C           1     173.178 186.113 279.494  0.00  0.00    -0.049 A 
HETATM   32  C           1     174.231 186.701 278.792  0.00  0.00     0.008 A 
HETATM   33  C           1     174.261 186.642 277.400  0.00  0.00     0.001 A 
HETATM   34  C           1     173.239 185.993 276.707  0.00  0.00     0.000 A 
HETATM   35  C           1     172.185 185.405 277.408  0.00  0.00     0.001 A 
HETATM   36  C           1     172.156 185.465 278.801  0.00  0.00     0.008 A 
ENDBRANCH  30  31
ENDBRANCH  29  30
ENDBRANCH   4  29
TORSDOF 9
ENDMDL
MODEL 8
REMARK VINA RESULT:      -7.1      4.139      9.884
REMARK  9 active torsions:
REMARK  status: ('A' for Active; 'I' for Inactive)
REMARK    1  A    between atoms: C_4  and  S_28 
REMARK    2  A    between atoms: C_5  and  C_7 
REMARK    3  A    between atoms: C_7  and  N_8 
REMARK    4  A    between atoms: N_8  and  C_9 
REMARK    5  A    between atoms: C_9  and  C_10 
REMARK    6  A    between atoms: C_10  and  C_11 
REMARK    7  A    between atoms: N_14  and  C_17 
REMARK    8  A    between atoms: S_28  and  C_35 
REMARK    9  A    between atoms: C_29  and  C_35 
ROOT
HETATM    1  C           1     173.064 186.677 283.654  0.00  0.00    -0.008 A 
HETATM    2  C           1     173.504 185.599 282.903  0.00  0.00     0.130 A 
HETATM    3  N           1     173.442 185.546 281.555  0.00  0.00    -0.253 NA
HETATM    4  C           1     172.914 186.622 280.932  0.00  0.00     0.101 A 
HETATM    5  C           1     172.447 187.746 281.594  0.00  0.00     0.006 A 
HETATM    6  C           1     172.525 187.770 282.983  0.00  0.00     0.025 A 
HETATM    7  C           1     173.154 186.667 284.988  0.00  0.00    -0.024 A 
HETATM    8  C           1     174.013 185.769 285.622  0.00  0.00     0.014 A 
HETATM    9  C           1     174.107 185.758 287.014  0.00  0.00     0.030 A 
HETATM   10  C           1     173.343 186.646 287.771  0.00  0.00     0.029 A 
HETATM   11  C           1     172.485 187.544 287.137  0.00  0.00     0.030 A 
HETATM   12  C           1     172.390 187.555 285.746  0.00  0.00     0.014 A 
HETATM   13  N           1     173.428 186.636 289.034  0.00  0.00    -0.390 N 
HETATM   14  C           1     172.623 187.572 289.832  0.00  0.00     0.149 C 
HETATM   15  C           1     174.332 185.689 289.702  0.00  0.00     0.149 C 
ENDROOT
BRANCH   5  16
HETATM   16  C           1     171.875 188.903 280.837  0.00  0.00     0.308 C 
BRANCH  16  17
HETATM   17  N           1     172.568 190.108 281.205  0.00  0.00     0.087 N 
HETATM   18  H           1     173.020 189.978 282.109  0.00  0.00     0.316 HD
BRANCH  17  19
HETATM   19  C           1     171.593 191.160 281.305  0.00  0.00     0.270 C 
BRANCH  19  20
HETATM   20  C           1     170.298 190.602 281.878  0.00  0.00     0.034 C 
BRANCH  20  21
HETATM   21  C           1     169.782 191.529 282.971  0.00  0.00    -0.010 C 
HETATM   22  C           1     170.845 192.578 283.280  0.00  0.00     0.035 C 
HETATM   23  C           1     170.307 193.648 284.228  0.00  0.00     0.272 C 
HETATM   24  N           1     169.091 194.269 283.700  0.00  0.00     0.088 N 
HETATM   25  C           1     168.039 193.278 283.473  0.00  0.00     0.272 C 
HETATM   26  C           1     168.494 192.194 282.497  0.00  0.00     0.035 C 
BRANCH  24  27
HETATM   27  C           1     168.629 195.170 284.722  0.00  0.00     0.268 C 
HETATM   28  C           1     169.537 195.065 285.940  0.00  0.00     0.037 C 
ENDBRANCH  24  27
ENDBRANCH  20  21
ENDBRANCH  19  20
ENDBRANCH  17  19
ENDBRANCH  16  17
ENDBRANCH   5  16
BRANCH   4  29
HETATM   29  S           1     172.810 186.595 279.119  0.00  0.00    -0.105 SA
BRANCH  29  30
HETATM   30  C           1     174.562 187.010 278.885  0.00  0.00     0.122 C 
BRANCH  30  31
HETATM   31  C           1     175.043 186.436 277.590  0.00  0.00    -0.049 A 
HETATM   32  C           1     174.154 185.762 276.752  0.00  0.00     0.008 A 
HETATM   33  C           1     174.602 185.225 275.546  0.00  0.00     0.001 A 
HETATM   34  C           1     175.940 185.363 275.175  0.00  0.00     0.000 A 
HETATM   35  C           1     176.829 186.037 276.012  0.00  0.00     0.001 A 
HETATM   36  C           1     176.380 186.573 277.220  0.00  0.00     0.008 A 
ENDBRANCH  30  31
ENDBRANCH  29  30
ENDBRANCH   4  29
TORSDOF 9
ENDMDL
MODEL 9
REMARK VINA RESULT:      -7.0     15.668     20.236
REMARK  9 active torsions:
REMARK  status: ('A' for Active; 'I' for Inactive)
REMARK    1  A    between atoms: C_4  and  S_28 
REMARK    2  A    between atoms: C_5  and  C_7 
REMARK    3  A    between atoms: C_7  and  N_8 
REMARK    4  A    between atoms: N_8  and  C_9 
REMARK    5  A    between atoms: C_9  and  C_10 
REMARK    6  A    between atoms: C_10  and  C_11 
REMARK    7  A    between atoms: N_14  and  C_17 
REMARK    8  A    between atoms: S_28  and  C_35 
REMARK    9  A    between atoms: C_29  and  C_35 
ROOT
HETATM    1  C           1     175.883 184.211 268.386  0.00  0.00    -0.008 A 
HETATM    2  C           1     175.653 183.668 269.640  0.00  0.00     0.130 A 
HETATM    3  N           1     175.279 184.393 270.717  0.00  0.00    -0.253 NA
HETATM    4  C           1     175.128 185.722 270.528  0.00  0.00     0.101 A 
HETATM    5  C           1     175.335 186.357 269.314  0.00  0.00     0.006 A 
HETATM    6  C           1     175.719 185.583 268.224  0.00  0.00     0.025 A 
HETATM    7  C           1     176.251 183.437 267.360  0.00  0.00    -0.024 A 
HETATM    8  C           1     176.052 182.057 267.420  0.00  0.00     0.014 A 
HETATM    9  C           1     176.437 181.250 266.350  0.00  0.00     0.030 A 
HETATM   10  C           1     177.020 181.822 265.219  0.00  0.00     0.029 A 
HETATM   11  C           1     177.218 183.202 265.159  0.00  0.00     0.030 A 
HETATM   12  C           1     176.834 184.009 266.229  0.00  0.00     0.014 A 
HETATM   13  N           1     177.369 181.090 264.247  0.00  0.00    -0.390 N 
HETATM   14  C           1     177.983 181.693 263.056  0.00  0.00     0.149 C 
HETATM   15  C           1     177.160 179.637 264.311  0.00  0.00     0.149 C 
ENDROOT
BRANCH   5  16
HETATM   16  C           1     175.148 187.835 269.178  0.00  0.00     0.308 C 
BRANCH  16  17
HETATM   17  N           1     174.750 188.148 267.832  0.00  0.00     0.087 N 
HETATM   18  H           1     175.309 188.927 267.485  0.00  0.00     0.316 HD
BRANCH  17  19
HETATM   19  C           1     173.364 188.529 267.863  0.00  0.00     0.270 C 
BRANCH  19  20
HETATM   20  C           1     172.620 187.836 266.730  0.00  0.00     0.034 C 
BRANCH  20  21
HETATM   21  C           1     173.011 186.364 266.689  0.00  0.00    -0.010 C 
HETATM   22  C           1     172.076 185.572 267.596  0.00  0.00     0.035 C 
HETATM   23  C           1     172.299 184.069 267.444  0.00  0.00     0.272 C 
HETATM   24  N           1     172.163 183.646 266.050  0.00  0.00     0.088 N 
HETATM   25  C           1     173.111 184.347 265.183  0.00  0.00     0.272 C 
HETATM   26  C           1     172.918 185.860 265.252  0.00  0.00     0.035 C 
BRANCH  24  27
HETATM   27  C           1     172.498 182.247 266.024  0.00  0.00     0.268 C 
HETATM   28  C           1     173.272 181.934 264.751  0.00  0.00     0.037 C 
ENDBRANCH  24  27
ENDBRANCH  20  21
ENDBRANCH  19  20
ENDBRANCH  17  19
ENDBRANCH  16  17
ENDBRANCH   5  16
BRANCH   4  29
HETATM   29  S           1     174.627 186.735 271.948  0.00  0.00    -0.105 SA
BRANCH  29  30
HETATM   30  C           1     174.641 185.341 273.111  0.00  0.00     0.122 C 
BRANCH  30  31
HETATM   31  C           1     175.754 185.521 274.094  0.00  0.00    -0.049 A 
HETATM   32  C           1     175.651 184.975 275.373  0.00  0.00     0.008 A 
HETATM   33  C           1     176.688 185.144 276.290  0.00  0.00     0.001 A 
HETATM   34  C           1     177.830 185.858 275.928  0.00  0.00     0.000 A 
HETATM   35  C           1     177.934 186.405 274.649  0.00  0.00     0.001 A 
HETATM   36  C           1     176.896 186.236 273.732  0.00  0.00     0.008 A 
ENDBRANCH  30  31
ENDBRANCH  29  30
ENDBRANCH   4  29
TORSDOF 9
ENDMDL
