MODEL 1
REMARK VINA RESULT:      -7.8      0.000      0.000
REMARK  10 active torsions:
REMARK  status: ('A' for Active; 'I' for Inactive)
REMARK    1  A    between atoms: C_3  and  C_18 
REMARK    2  A    between atoms: C_5  and  S_9 
REMARK    3  A    between atoms: C_6  and  C_8 
REMARK    4  A    between atoms: C_8  and  N_17 
REMARK    5  A    between atoms: S_9  and  C_10 
REMARK    6  A    between atoms: C_10  and  C_11 
REMARK    7  A    between atoms: N_17  and  C_19 
REMARK    8  A    between atoms: C_19  and  C_20 
REMARK    9  A    between atoms: C_20  and  N_21 
REMARK   10  A    between atoms: C_30  and  O_34 
ROOT
HETATM    1  C           1     174.623 186.836 280.128  0.00  0.00     0.130 A 
HETATM    2  C           1     173.560 186.313 280.848  0.00  0.00    -0.008 A 
HETATM    3  N           1     174.594 187.057 278.796  0.00  0.00    -0.253 NA
HETATM    4  C           1     173.447 186.742 278.156  0.00  0.00     0.101 A 
HETATM    5  C           1     172.331 186.214 278.787  0.00  0.00     0.006 A 
HETATM    6  C           1     172.394 185.998 280.159  0.00  0.00     0.025 A 
ENDROOT
BRANCH   5   7
HETATM    7  C           1     171.093 185.888 278.012  0.00  0.00     0.311 C 
BRANCH   7   8
HETATM    8  N           1     169.994 186.671 278.511  0.00  0.00     0.089 N 
HETATM    9  H           1     169.165 186.083 278.587  0.00  0.00     0.316 HD
BRANCH   8  10
HETATM   10  C           1     169.747 187.729 277.569  0.00  0.00     0.300 C 
BRANCH  10  11
HETATM   11  C           1     170.322 189.033 278.105  0.00  0.00     0.302 C 
BRANCH  11  12
HETATM   12  N           1     170.039 189.141 279.510  0.00  0.00     0.093 N 
HETATM   13  C           1     171.289 189.564 280.168  0.00  0.00     0.302 C 
HETATM   14  C           1     171.084 189.970 281.644  0.00  0.00     0.302 C 
HETATM   15  N           1     170.061 191.017 281.814  0.00  0.00     0.087 N 
HETATM   16  C           1     169.800 191.120 283.225  0.00  0.00     0.310 C 
HETATM   17  C           1     168.812 190.595 281.157  0.00  0.00     0.302 C 
HETATM   18  C           1     169.017 190.188 279.682  0.00  0.00     0.302 C 
ENDBRANCH  11  12
ENDBRANCH  10  11
ENDBRANCH   8  10
ENDBRANCH   7   8
ENDBRANCH   5   7
BRANCH   4  19
HETATM   19  S           1     173.363 187.023 276.365  0.00  0.00    -0.105 SA
BRANCH  19  20
HETATM   20  C           1     174.189 185.462 275.952  0.00  0.00     0.119 C 
BRANCH  20  21
HETATM   21  C           1     175.598 185.738 275.527  0.00  0.00    -0.049 A 
HETATM   22  C           1     176.646 185.563 276.431  0.00  0.00     0.008 A 
HETATM   23  C           1     177.958 185.819 276.035  0.00  0.00     0.001 A 
HETATM   24  C           1     178.223 186.252 274.735  0.00  0.00     0.000 A 
HETATM   25  C           1     177.175 186.427 273.832  0.00  0.00     0.001 A 
HETATM   26  C           1     175.863 186.170 274.228  0.00  0.00     0.008 A 
ENDBRANCH  20  21
ENDBRANCH  19  20
ENDBRANCH   4  19
BRANCH   2  27
HETATM   27  C           1     173.654 186.117 282.167  0.00  0.00    -0.021 A 
HETATM   28  C           1     174.686 185.336 282.684  0.00  0.00     0.015 A 
HETATM   29  C           1     174.783 185.132 284.061  0.00  0.00     0.041 A 
HETATM   30  C           1     173.848 185.710 284.919  0.00  0.00     0.106 A 
HETATM   31  C           1     172.816 186.491 284.401  0.00  0.00     0.150 A 
HETATM   32  F           1     171.931 187.038 285.214  0.00  0.00    -0.203 F 
HETATM   33  C           1     172.719 186.695 283.025  0.00  0.00     0.057 A 
BRANCH  30  34
HETATM   34  O           1     173.942 185.511 286.256  0.00  0.00    -0.353 OA
HETATM   35  C           1     175.255 185.183 286.620  0.00  0.00     0.210 C 
ENDBRANCH  30  34
ENDBRANCH   2  27
TORSDOF 10
ENDMDL
MODEL 2
REMARK VINA RESULT:      -7.6      2.141      3.719
REMARK  10 active torsions:
REMARK  status: ('A' for Active; 'I' for Inactive)
REMARK    1  A    between atoms: C_3  and  C_18 
REMARK    2  A    between atoms: C_5  and  S_9 
REMARK    3  A    between atoms: C_6  and  C_8 
REMARK    4  A    between atoms: C_8  and  N_17 
REMARK    5  A    between atoms: S_9  and  C_10 
REMARK    6  A    between atoms: C_10  and  C_11 
REMARK    7  A    between atoms: N_17  and  C_19 
REMARK    8  A    between atoms: C_19  and  C_20 
REMARK    9  A    between atoms: C_20  and  N_21 
REMARK   10  A    between atoms: C_30  and  O_34 
ROOT
HETATM    1  C           1     174.585 186.890 280.366  0.00  0.00     0.130 A 
HETATM    2  C           1     173.483 186.413 281.057  0.00  0.00    -0.008 A 
HETATM    3  N           1     174.616 187.064 279.026  0.00  0.00    -0.253 NA
HETATM    4  C           1     173.491 186.746 278.349  0.00  0.00     0.101 A 
HETATM    5  C           1     172.339 186.262 278.951  0.00  0.00     0.006 A 
HETATM    6  C           1     172.340 186.094 280.332  0.00  0.00     0.025 A 
ENDROOT
BRANCH   5   7
HETATM    7  C           1     171.129 185.931 278.137  0.00  0.00     0.311 C 
BRANCH   7   8
HETATM    8  N           1     170.003 186.682 278.622  0.00  0.00     0.089 N 
HETATM    9  H           1     169.194 186.066 278.706  0.00  0.00     0.316 HD
BRANCH   8  10
HETATM   10  C           1     169.720 187.716 277.664  0.00  0.00     0.300 C 
BRANCH  10  11
HETATM   11  C           1     169.347 187.085 276.330  0.00  0.00     0.302 C 
BRANCH  11  12
HETATM   12  N           1     169.677 187.989 275.261  0.00  0.00     0.093 N 
HETATM   13  C           1     170.490 189.068 275.849  0.00  0.00     0.302 C 
HETATM   14  C           1     171.137 189.982 274.784  0.00  0.00     0.302 C 
HETATM   15  N           1     171.945 189.238 273.803  0.00  0.00     0.087 N 
HETATM   16  C           1     172.276 190.159 272.749  0.00  0.00     0.310 C 
HETATM   17  C           1     171.132 188.158 273.215  0.00  0.00     0.302 C 
HETATM   18  C           1     170.486 187.245 274.279  0.00  0.00     0.302 C 
ENDBRANCH  11  12
ENDBRANCH  10  11
ENDBRANCH   8  10
ENDBRANCH   7   8
ENDBRANCH   5   7
BRANCH   4  19
HETATM   19  S           1     173.487 186.964 276.548  0.00  0.00    -0.105 SA
BRANCH  19  20
HETATM   20  C           1     174.368 185.410 276.230  0.00  0.00     0.119 C 
BRANCH  20  21
HETATM   21  C           1     175.737 185.710 275.703  0.00  0.00    -0.049 A 
HETATM   22  C           1     175.909 186.049 274.361  0.00  0.00     0.008 A 
HETATM   23  C           1     177.184 186.329 273.871  0.00  0.00     0.001 A 
HETATM   24  C           1     178.288 186.269 274.723  0.00  0.00     0.000 A 
HETATM   25  C           1     178.115 185.930 276.065  0.00  0.00     0.001 A 
HETATM   26  C           1     176.840 185.650 276.554  0.00  0.00     0.008 A 
ENDBRANCH  20  21
ENDBRANCH  19  20
ENDBRANCH   4  19
BRANCH   2  27
HETATM   27  C           1     173.518 186.264 282.385  0.00  0.00    -0.021 A 
HETATM   28  C           1     172.761 187.104 283.201  0.00  0.00     0.015 A 
HETATM   29  C           1     172.798 186.948 284.587  0.00  0.00     0.041 A 
HETATM   30  C           1     173.592 185.953 285.156  0.00  0.00     0.106 A 
HETATM   31  C           1     174.348 185.113 284.340  0.00  0.00     0.150 A 
HETATM   32  F           1     175.099 184.170 284.879  0.00  0.00    -0.203 F 
HETATM   33  C           1     174.311 185.268 282.955  0.00  0.00     0.057 A 
BRANCH  30  34
HETATM   34  O           1     173.627 185.802 286.502  0.00  0.00    -0.353 OA
HETATM   35  C           1     173.137 186.947 287.145  0.00  0.00     0.210 C 
ENDBRANCH  30  34
ENDBRANCH   2  27
TORSDOF 10
ENDMDL
MODEL 3
REMARK VINA RESULT:      -7.6      7.912     12.334
REMARK  10 active torsions:
REMARK  status: ('A' for Active; 'I' for Inactive)
REMARK    1  A    between atoms: C_3  and  C_18 
REMARK    2  A    between atoms: C_5  and  S_9 
REMARK    3  A    between atoms: C_6  and  C_8 
REMARK    4  A    between atoms: C_8  and  N_17 
REMARK    5  A    between atoms: S_9  and  C_10 
REMARK    6  A    between atoms: C_10  and  C_11 
REMARK    7  A    between atoms: N_17  and  C_19 
REMARK    8  A    between atoms: C_19  and  C_20 
REMARK    9  A    between atoms: C_20  and  N_21 
REMARK   10  A    between atoms: C_30  and  O_34 
ROOT
HETATM    1  C           1     174.323 186.283 271.737  0.00  0.00     0.130 A 
HETATM    2  C           1     175.474 185.610 272.117  0.00  0.00    -0.008 A 
HETATM    3  N           1     173.768 186.188 270.509  0.00  0.00    -0.253 NA
HETATM    4  C           1     174.392 185.383 269.623  0.00  0.00     0.101 A 
HETATM    5  C           1     175.547 184.670 269.909  0.00  0.00     0.006 A 
HETATM    6  C           1     176.094 184.789 271.182  0.00  0.00     0.025 A 
ENDROOT
BRANCH   5   7
HETATM    7  C           1     176.184 183.796 268.876  0.00  0.00     0.311 C 
BRANCH   7   8
HETATM    8  N           1     177.331 184.465 268.322  0.00  0.00     0.089 N 
HETATM    9  H           1     177.219 185.474 268.426  0.00  0.00     0.316 HD
BRANCH   8  10
HETATM   10  C           1     177.401 184.132 266.925  0.00  0.00     0.300 C 
BRANCH  10  11
HETATM   11  C           1     176.507 182.933 266.643  0.00  0.00     0.302 C 
BRANCH  11  12
HETATM   12  N           1     176.007 183.013 265.297  0.00  0.00     0.093 N 
HETATM   13  C           1     174.573 182.678 265.351  0.00  0.00     0.302 C 
HETATM   14  C           1     173.837 182.968 264.025  0.00  0.00     0.302 C 
HETATM   15  N           1     173.998 184.360 263.570  0.00  0.00     0.087 N 
HETATM   16  C           1     173.483 184.424 262.229  0.00  0.00     0.310 C 
HETATM   17  C           1     175.432 184.695 263.516  0.00  0.00     0.302 C 
HETATM   18  C           1     176.168 184.406 264.842  0.00  0.00     0.302 C 
ENDBRANCH  11  12
ENDBRANCH  10  11
ENDBRANCH   8  10
ENDBRANCH   7   8
ENDBRANCH   5   7
BRANCH   4  19
HETATM   19  S           1     173.680 185.226 267.962  0.00  0.00    -0.105 SA
BRANCH  19  20
HETATM   20  C           1     174.583 186.655 267.301  0.00  0.00     0.119 C 
BRANCH  20  21
HETATM   21  C           1     173.681 187.850 267.278  0.00  0.00    -0.049 A 
HETATM   22  C           1     172.409 187.753 266.714  0.00  0.00     0.008 A 
HETATM   23  C           1     171.569 188.866 266.694  0.00  0.00     0.001 A 
HETATM   24  C           1     172.001 190.077 267.237  0.00  0.00     0.000 A 
HETATM   25  C           1     173.273 190.173 267.801  0.00  0.00     0.001 A 
HETATM   26  C           1     174.113 189.059 267.821  0.00  0.00     0.008 A 
ENDBRANCH  20  21
ENDBRANCH  19  20
ENDBRANCH   4  19
BRANCH   2  27
HETATM   27  C           1     175.973 185.747 273.350  0.00  0.00    -0.021 A 
HETATM   28  C           1     177.257 186.261 273.529  0.00  0.00     0.015 A 
HETATM   29  C           1     177.778 186.402 274.815  0.00  0.00     0.041 A 
HETATM   30  C           1     177.015 186.030 275.922  0.00  0.00     0.106 A 
HETATM   31  C           1     175.731 185.517 275.742  0.00  0.00     0.150 A 
HETATM   32  F           1     175.009 185.165 276.789  0.00  0.00    -0.203 F 
HETATM   33  C           1     175.210 185.375 274.457  0.00  0.00     0.057 A 
BRANCH  30  34
HETATM   34  O           1     177.521 186.168 277.171  0.00  0.00    -0.353 OA
HETATM   35  C           1     178.648 185.353 277.345  0.00  0.00     0.210 C 
ENDBRANCH  30  34
ENDBRANCH   2  27
TORSDOF 10
ENDMDL
MODEL 4
REMARK VINA RESULT:      -7.6      8.536     12.701
REMARK  10 active torsions:
REMARK  status: ('A' for Active; 'I' for Inactive)
REMARK    1  A    between atoms: C_3  and  C_18 
REMARK    2  A    between atoms: C_5  and  S_9 
REMARK    3  A    between atoms: C_6  and  C_8 
REMARK    4  A    between atoms: C_8  and  N_17 
REMARK    5  A    between atoms: S_9  and  C_10 
REMARK    6  A    between atoms: C_10  and  C_11 
REMARK    7  A    between atoms: N_17  and  C_19 
REMARK    8  A    between atoms: C_19  and  C_20 
REMARK    9  A    between atoms: C_20  and  N_21 
REMARK   10  A    between atoms: C_30  and  O_34 
ROOT
HETATM    1  C           1     175.935 184.431 268.951  0.00  0.00     0.130 A 
HETATM    2  C           1     175.770 185.172 267.791  0.00  0.00    -0.008 A 
HETATM    3  N           1     175.609 184.880 270.183  0.00  0.00    -0.253 NA
HETATM    4  C           1     175.095 186.127 270.256  0.00  0.00     0.101 A 
HETATM    5  C           1     174.892 186.944 269.154  0.00  0.00     0.006 A 
HETATM    6  C           1     175.238 186.452 267.900  0.00  0.00     0.025 A 
ENDROOT
BRANCH   5   7
HETATM    7  C           1     174.317 188.316 269.311  0.00  0.00     0.311 C 
BRANCH   7   8
HETATM    8  N           1     175.357 189.295 269.143  0.00  0.00     0.089 N 
HETATM    9  H           1     176.237 188.823 268.932  0.00  0.00     0.316 HD
BRANCH   8  10
HETATM   10  C           1     175.485 190.016 270.380  0.00  0.00     0.300 C 
BRANCH  10  11
HETATM   11  C           1     175.175 191.488 270.146  0.00  0.00     0.302 C 
BRANCH  11  12
HETATM   12  N           1     174.227 191.942 271.127  0.00  0.00     0.093 N 
HETATM   13  C           1     174.005 190.823 272.059  0.00  0.00     0.302 C 
HETATM   14  C           1     173.207 191.235 273.315  0.00  0.00     0.302 C 
HETATM   15  N           1     173.819 192.363 274.040  0.00  0.00     0.087 N 
HETATM   16  C           1     172.863 192.796 275.023  0.00  0.00     0.310 C 
HETATM   17  C           1     174.041 193.482 273.107  0.00  0.00     0.302 C 
HETATM   18  C           1     174.838 193.070 271.852  0.00  0.00     0.302 C 
ENDBRANCH  11  12
ENDBRANCH  10  11
ENDBRANCH   8  10
ENDBRANCH   7   8
ENDBRANCH   5   7
BRANCH   4  19
HETATM   19  S           1     174.643 186.771 271.891  0.00  0.00    -0.105 SA
BRANCH  19  20
HETATM   20  C           1     174.971 185.201 272.741  0.00  0.00     0.119 C 
BRANCH  20  21
HETATM   21  C           1     175.892 185.441 273.896  0.00  0.00    -0.049 A 
HETATM   22  C           1     177.093 186.124 273.701  0.00  0.00     0.008 A 
HETATM   23  C           1     177.951 186.348 274.778  0.00  0.00     0.001 A 
HETATM   24  C           1     177.608 185.888 276.050  0.00  0.00     0.000 A 
HETATM   25  C           1     176.408 185.205 276.245  0.00  0.00     0.001 A 
HETATM   26  C           1     175.550 184.981 275.167  0.00  0.00     0.008 A 
ENDBRANCH  20  21
ENDBRANCH  19  20
ENDBRANCH   4  19
BRANCH   2  27
HETATM   27  C           1     176.113 184.669 266.601  0.00  0.00    -0.021 A 
HETATM   28  C           1     177.065 183.653 266.521  0.00  0.00     0.015 A 
HETATM   29  C           1     177.423 183.129 265.279  0.00  0.00     0.041 A 
HETATM   30  C           1     176.828 183.620 264.117  0.00  0.00     0.106 A 
HETATM   31  C           1     175.876 184.636 264.197  0.00  0.00     0.150 A 
HETATM   32  F           1     175.313 185.101 263.098  0.00  0.00    -0.203 F 
HETATM   33  C           1     175.518 185.160 265.439  0.00  0.00     0.057 A 
BRANCH  30  34
HETATM   34  O           1     177.175 183.111 262.911  0.00  0.00    -0.353 OA
HETATM   35  C           1     178.253 182.223 263.036  0.00  0.00     0.210 C 
ENDBRANCH  30  34
ENDBRANCH   2  27
TORSDOF 10
ENDMDL
MODEL 5
REMARK VINA RESULT:      -7.5      8.142     12.891
REMARK  10 active torsions:
REMARK  status: ('A' for Active; 'I' for Inactive)
REMARK    1  A    between atoms: C_3  and  C_18 
REMARK    2  A    between atoms: C_5  and  S_9 
REMARK    3  A    between atoms: C_6  and  C_8 
REMARK    4  A    between atoms: C_8  and  N_17 
REMARK    5  A    between atoms: S_9  and  C_10 
REMARK    6  A    between atoms: C_10  and  C_11 
REMARK    7  A    between atoms: N_17  and  C_19 
REMARK    8  A    between atoms: C_19  and  C_20 
REMARK    9  A    between atoms: C_20  and  N_21 
REMARK   10  A    between atoms: C_30  and  O_34 
ROOT
HETATM    1  C           1     174.115 186.162 271.659  0.00  0.00     0.130 A 
HETATM    2  C           1     175.246 185.478 272.078  0.00  0.00    -0.008 A 
HETATM    3  N           1     173.617 186.096 270.406  0.00  0.00    -0.253 NA
HETATM    4  C           1     174.281 185.309 269.531  0.00  0.00     0.101 A 
HETATM    5  C           1     175.419 184.586 269.855  0.00  0.00     0.006 A 
HETATM    6  C           1     175.907 184.675 271.154  0.00  0.00     0.025 A 
ENDROOT
BRANCH   5   7
HETATM    7  C           1     176.103 183.733 268.833  0.00  0.00     0.311 C 
BRANCH   7   8
HETATM    8  N           1     177.218 184.451 268.277  0.00  0.00     0.089 N 
HETATM    9  H           1     177.033 185.453 268.321  0.00  0.00     0.316 HD
BRANCH   8  10
HETATM   10  C           1     177.357 184.049 266.903  0.00  0.00     0.300 C 
BRANCH  10  11
HETATM   11  C           1     176.418 182.886 266.616  0.00  0.00     0.302 C 
BRANCH  11  12
HETATM   12  N           1     176.548 182.492 265.239  0.00  0.00     0.093 N 
HETATM   13  C           1     176.732 183.726 264.455  0.00  0.00     0.302 C 
HETATM   14  C           1     177.141 183.454 262.991  0.00  0.00     0.302 C 
HETATM   15  N           1     178.348 182.616 262.878  0.00  0.00     0.087 N 
HETATM   16  C           1     178.469 182.241 261.495  0.00  0.00     0.310 C 
HETATM   17  C           1     178.163 181.382 263.662  0.00  0.00     0.302 C 
HETATM   18  C           1     177.755 181.654 265.125  0.00  0.00     0.302 C 
ENDBRANCH  11  12
ENDBRANCH  10  11
ENDBRANCH   8  10
ENDBRANCH   7   8
ENDBRANCH   5   7
BRANCH   4  19
HETATM   19  S           1     173.646 185.190 267.836  0.00  0.00    -0.105 SA
BRANCH  19  20
HETATM   20  C           1     174.571 186.638 267.252  0.00  0.00     0.119 C 
BRANCH  20  21
HETATM   21  C           1     173.671 187.835 267.239  0.00  0.00    -0.049 A 
HETATM   22  C           1     172.383 187.734 266.712  0.00  0.00     0.008 A 
HETATM   23  C           1     171.545 188.848 266.701  0.00  0.00     0.001 A 
HETATM   24  C           1     171.994 190.064 267.216  0.00  0.00     0.000 A 
HETATM   25  C           1     173.282 190.166 267.742  0.00  0.00     0.001 A 
HETATM   26  C           1     174.120 189.051 267.753  0.00  0.00     0.008 A 
ENDBRANCH  20  21
ENDBRANCH  19  20
ENDBRANCH   4  19
BRANCH   2  27
HETATM   27  C           1     175.688 185.586 273.335  0.00  0.00    -0.021 A 
HETATM   28  C           1     176.988 186.025 273.581  0.00  0.00     0.015 A 
HETATM   29  C           1     177.449 186.137 274.893  0.00  0.00     0.041 A 
HETATM   30  C           1     176.610 185.809 275.958  0.00  0.00     0.106 A 
HETATM   31  C           1     175.310 185.370 275.710  0.00  0.00     0.150 A 
HETATM   32  F           1     174.515 185.060 276.718  0.00  0.00    -0.203 F 
HETATM   33  C           1     174.849 185.258 274.399  0.00  0.00     0.057 A 
BRANCH  30  34
HETATM   34  O           1     177.057 185.918 277.232  0.00  0.00    -0.353 OA
HETATM   35  C           1     178.448 185.750 277.287  0.00  0.00     0.210 C 
ENDBRANCH  30  34
ENDBRANCH   2  27
TORSDOF 10
ENDMDL
MODEL 6
REMARK VINA RESULT:      -7.4      9.043     13.342
REMARK  10 active torsions:
REMARK  status: ('A' for Active; 'I' for Inactive)
REMARK    1  A    between atoms: C_3  and  C_18 
REMARK    2  A    between atoms: C_5  and  S_9 
REMARK    3  A    between atoms: C_6  and  C_8 
REMARK    4  A    between atoms: C_8  and  N_17 
REMARK    5  A    between atoms: S_9  and  C_10 
REMARK    6  A    between atoms: C_10  and  C_11 
REMARK    7  A    between atoms: N_17  and  C_19 
REMARK    8  A    between atoms: C_19  and  C_20 
REMARK    9  A    between atoms: C_20  and  N_21 
REMARK   10  A    between atoms: C_30  and  O_34 
ROOT
HETATM    1  C           1     176.366 184.255 268.422  0.00  0.00     0.130 A 
HETATM    2  C           1     176.033 184.802 267.193  0.00  0.00    -0.008 A 
HETATM    3  N           1     176.047 184.819 269.608  0.00  0.00    -0.253 NA
HETATM    4  C           1     175.362 185.982 269.560  0.00  0.00     0.101 A 
HETATM    5  C           1     174.984 186.606 268.380  0.00  0.00     0.006 A 
HETATM    6  C           1     175.328 186.000 267.177  0.00  0.00     0.025 A 
ENDROOT
BRANCH   5   7
HETATM    7  C           1     174.226 187.896 268.404  0.00  0.00     0.311 C 
BRANCH   7   8
HETATM    8  N           1     175.060 188.953 267.897  0.00  0.00     0.089 N 
HETATM    9  H           1     176.035 188.752 268.120  0.00  0.00     0.316 HD
BRANCH   8  10
HETATM   10  C           1     174.663 190.173 268.545  0.00  0.00     0.300 C 
BRANCH  10  11
HETATM   11  C           1     175.393 190.305 269.874  0.00  0.00     0.302 C 
BRANCH  11  12
HETATM   12  N           1     174.546 190.975 270.823  0.00  0.00     0.093 N 
HETATM   13  C           1     175.181 192.269 271.127  0.00  0.00     0.302 C 
HETATM   14  C           1     174.265 193.214 271.935  0.00  0.00     0.302 C 
HETATM   15  N           1     172.963 193.447 271.285  0.00  0.00     0.087 N 
HETATM   16  C           1     172.134 194.128 272.243  0.00  0.00     0.310 C 
HETATM   17  C           1     172.328 192.153 270.982  0.00  0.00     0.302 C 
HETATM   18  C           1     173.243 191.209 270.174  0.00  0.00     0.302 C 
ENDBRANCH  11  12
ENDBRANCH  10  11
ENDBRANCH   8  10
ENDBRANCH   7   8
ENDBRANCH   5   7
BRANCH   4  19
HETATM   19  S           1     174.912 186.775 271.128  0.00  0.00    -0.105 SA
BRANCH  19  20
HETATM   20  C           1     174.953 185.225 272.070  0.00  0.00     0.119 C 
BRANCH  20  21
HETATM   21  C           1     175.707 185.434 273.346  0.00  0.00    -0.049 A 
HETATM   22  C           1     176.923 186.118 273.334  0.00  0.00     0.008 A 
HETATM   23  C           1     177.625 186.314 274.523  0.00  0.00     0.001 A 
HETATM   24  C           1     177.112 185.826 275.725  0.00  0.00     0.000 A 
HETATM   25  C           1     175.896 185.142 275.737  0.00  0.00     0.001 A 
HETATM   26  C           1     175.195 184.946 274.548  0.00  0.00     0.008 A 
ENDBRANCH  20  21
ENDBRANCH  19  20
ENDBRANCH   4  19
BRANCH   2  27
HETATM   27  C           1     176.380 184.193 266.055  0.00  0.00    -0.021 A 
HETATM   28  C           1     175.958 184.711 264.831  0.00  0.00     0.015 A 
HETATM   29  C           1     176.319 184.075 263.643  0.00  0.00     0.041 A 
HETATM   30  C           1     177.101 182.920 263.680  0.00  0.00     0.106 A 
HETATM   31  C           1     177.522 182.403 264.904  0.00  0.00     0.150 A 
HETATM   32  F           1     178.263 181.311 264.938  0.00  0.00    -0.203 F 
HETATM   33  C           1     177.162 183.038 266.091  0.00  0.00     0.057 A 
BRANCH  30  34
HETATM   34  O           1     177.452 182.303 262.526  0.00  0.00    -0.353 OA
HETATM   35  C           1     178.670 182.802 262.044  0.00  0.00     0.210 C 
ENDBRANCH  30  34
ENDBRANCH   2  27
TORSDOF 10
ENDMDL
MODEL 7
REMARK VINA RESULT:      -7.4      4.120      8.223
REMARK  10 active torsions:
REMARK  status: ('A' for Active; 'I' for Inactive)
REMARK    1  A    between atoms: C_3  and  C_18 
REMARK    2  A    between atoms: C_5  and  S_9 
REMARK    3  A    between atoms: C_6  and  C_8 
REMARK    4  A    between atoms: C_8  and  N_17 
REMARK    5  A    between atoms: S_9  and  C_10 
REMARK    6  A    between atoms: C_10  and  C_11 
REMARK    7  A    between atoms: N_17  and  C_19 
REMARK    8  A    between atoms: C_19  and  C_20 
REMARK    9  A    between atoms: C_20  and  N_21 
REMARK   10  A    between atoms: C_30  and  O_34 
ROOT
HETATM    1  C           1     175.282 186.807 278.205  0.00  0.00     0.130 A 
HETATM    2  C           1     174.508 186.308 277.169  0.00  0.00    -0.008 A 
HETATM    3  N           1     174.805 187.069 279.441  0.00  0.00    -0.253 NA
HETATM    4  C           1     173.494 186.821 279.649  0.00  0.00     0.101 A 
HETATM    5  C           1     172.640 186.322 278.677  0.00  0.00     0.006 A 
HETATM    6  C           1     173.162 186.062 277.415  0.00  0.00     0.025 A 
ENDROOT
BRANCH   5   7
HETATM    7  C           1     171.196 186.071 278.980  0.00  0.00     0.311 C 
BRANCH   7   8
HETATM    8  N           1     170.446 186.044 277.753  0.00  0.00     0.089 N 
HETATM    9  H           1     171.089 186.009 276.962  0.00  0.00     0.316 HD
BRANCH   8  10
HETATM   10  C           1     169.672 187.254 277.686  0.00  0.00     0.300 C 
BRANCH  10  11
HETATM   11  C           1     169.430 187.625 276.230  0.00  0.00     0.302 C 
BRANCH  11  12
HETATM   12  N           1     170.662 187.518 275.496  0.00  0.00     0.093 N 
HETATM   13  C           1     170.303 187.309 274.082  0.00  0.00     0.302 C 
HETATM   14  C           1     171.513 187.430 273.130  0.00  0.00     0.302 C 
HETATM   15  N           1     172.229 188.710 273.270  0.00  0.00     0.087 N 
HETATM   16  C           1     173.451 188.590 272.521  0.00  0.00     0.310 C 
HETATM   17  C           1     172.588 188.919 274.684  0.00  0.00     0.302 C 
HETATM   18  C           1     171.379 188.798 275.636  0.00  0.00     0.302 C 
ENDBRANCH  11  12
ENDBRANCH  10  11
ENDBRANCH   8  10
ENDBRANCH   7   8
ENDBRANCH   5   7
BRANCH   4  19
HETATM   19  S           1     172.810 187.159 281.296  0.00  0.00    -0.105 SA
BRANCH  19  20
HETATM   20  C           1     174.356 186.762 282.159  0.00  0.00     0.119 C 
BRANCH  20  21
HETATM   21  C           1     174.045 186.084 283.457  0.00  0.00    -0.049 A 
HETATM   22  C           1     175.072 185.521 284.214  0.00  0.00     0.008 A 
HETATM   23  C           1     174.782 184.890 285.424  0.00  0.00     0.001 A 
HETATM   24  C           1     173.464 184.822 285.876  0.00  0.00     0.000 A 
HETATM   25  C           1     172.436 185.385 285.119  0.00  0.00     0.001 A 
HETATM   26  C           1     172.727 186.015 283.909  0.00  0.00     0.008 A 
ENDBRANCH  20  21
ENDBRANCH  19  20
ENDBRANCH   4  19
BRANCH   2  27
HETATM   27  C           1     175.042 186.069 275.967  0.00  0.00    -0.021 A 
HETATM   28  C           1     174.239 185.597 274.929  0.00  0.00     0.015 A 
HETATM   29  C           1     174.797 185.348 273.675  0.00  0.00     0.041 A 
HETATM   30  C           1     176.157 185.569 273.460  0.00  0.00     0.106 A 
HETATM   31  C           1     176.959 186.041 274.498  0.00  0.00     0.150 A 
HETATM   32  F           1     178.247 186.251 274.294  0.00  0.00    -0.203 F 
HETATM   33  C           1     176.402 186.291 275.751  0.00  0.00     0.057 A 
BRANCH  30  34
HETATM   34  O           1     176.699 185.327 272.242  0.00  0.00    -0.353 OA
HETATM   35  C           1     175.772 184.694 271.401  0.00  0.00     0.210 C 
ENDBRANCH  30  34
ENDBRANCH   2  27
TORSDOF 10
ENDMDL
MODEL 8
REMARK VINA RESULT:      -7.4      7.480     10.471
REMARK  10 active torsions:
REMARK  status: ('A' for Active; 'I' for Inactive)
REMARK    1  A    between atoms: C_3  and  C_18 
REMARK    2  A    between atoms: C_5  and  S_9 
REMARK    3  A    between atoms: C_6  and  C_8 
REMARK    4  A    between atoms: C_8  and  N_17 
REMARK    5  A    between atoms: S_9  and  C_10 
REMARK    6  A    between atoms: C_10  and  C_11 
REMARK    7  A    between atoms: N_17  and  C_19 
REMARK    8  A    between atoms: C_19  and  C_20 
REMARK    9  A    between atoms: C_20  and  N_21 
REMARK   10  A    between atoms: C_30  and  O_34 
ROOT
HETATM    1  C           1     176.281 184.303 270.768  0.00  0.00     0.130 A 
HETATM    2  C           1     175.770 185.415 271.419  0.00  0.00    -0.008 A 
HETATM    3  N           1     176.226 184.124 269.431  0.00  0.00    -0.253 NA
HETATM    4  C           1     175.634 185.103 268.712  0.00  0.00     0.101 A 
HETATM    5  C           1     175.095 186.251 269.272  0.00  0.00     0.006 A 
HETATM    6  C           1     175.167 186.406 270.652  0.00  0.00     0.025 A 
ENDROOT
BRANCH   5   7
HETATM    7  C           1     174.453 187.295 268.413  0.00  0.00     0.311 C 
BRANCH   7   8
HETATM    8  N           1     175.353 188.406 268.256  0.00  0.00     0.089 N 
HETATM    9  H           1     176.222 188.213 268.754  0.00  0.00     0.316 HD
BRANCH   8  10
HETATM   10  C           1     174.721 189.565 268.826  0.00  0.00     0.300 C 
BRANCH  10  11
HETATM   11  C           1     175.518 190.034 270.036  0.00  0.00     0.302 C 
BRANCH  11  12
HETATM   12  N           1     174.660 190.783 270.915  0.00  0.00     0.093 N 
HETATM   13  C           1     175.269 192.114 271.078  0.00  0.00     0.302 C 
HETATM   14  C           1     174.336 193.120 271.788  0.00  0.00     0.302 C 
HETATM   15  N           1     173.027 193.257 271.125  0.00  0.00     0.087 N 
HETATM   16  C           1     172.188 194.016 272.012  0.00  0.00     0.310 C 
HETATM   17  C           1     172.419 191.925 270.963  0.00  0.00     0.302 C 
HETATM   18  C           1     173.351 190.920 270.253  0.00  0.00     0.302 C 
ENDBRANCH  11  12
ENDBRANCH  10  11
ENDBRANCH   8  10
ENDBRANCH   7   8
ENDBRANCH   5   7
BRANCH   4  19
HETATM   19  S           1     175.540 184.904 266.911  0.00  0.00    -0.105 SA
BRANCH  19  20
HETATM   20  C           1     176.853 183.653 266.852  0.00  0.00     0.119 C 
BRANCH  20  21
HETATM   21  C           1     177.109 183.263 265.430  0.00  0.00    -0.049 A 
HETATM   22  C           1     177.819 182.097 265.143  0.00  0.00     0.008 A 
HETATM   23  C           1     178.056 181.733 263.818  0.00  0.00     0.001 A 
HETATM   24  C           1     177.584 182.536 262.779  0.00  0.00     0.000 A 
HETATM   25  C           1     176.874 183.702 263.066  0.00  0.00     0.001 A 
HETATM   26  C           1     176.637 184.065 264.391  0.00  0.00     0.008 A 
ENDBRANCH  20  21
ENDBRANCH  19  20
ENDBRANCH   4  19
BRANCH   2  27
HETATM   27  C           1     175.856 185.532 272.748  0.00  0.00    -0.021 A 
HETATM   28  C           1     174.820 185.067 273.557  0.00  0.00     0.015 A 
HETATM   29  C           1     174.910 185.190 274.944  0.00  0.00     0.041 A 
HETATM   30  C           1     176.036 185.778 275.521  0.00  0.00     0.106 A 
HETATM   31  C           1     177.071 186.243 274.711  0.00  0.00     0.150 A 
HETATM   32  F           1     178.136 186.800 275.257  0.00  0.00    -0.203 F 
HETATM   33  C           1     176.981 186.120 273.325  0.00  0.00     0.057 A 
BRANCH  30  34
HETATM   34  O           1     176.123 185.898 276.868  0.00  0.00    -0.353 OA
HETATM   35  C           1     175.186 186.823 277.347  0.00  0.00     0.210 C 
ENDBRANCH  30  34
ENDBRANCH   2  27
TORSDOF 10
ENDMDL
MODEL 9
REMARK VINA RESULT:      -7.3      6.905     10.326
REMARK  10 active torsions:
REMARK  status: ('A' for Active; 'I' for Inactive)
REMARK    1  A    between atoms: C_3  and  C_18 
REMARK    2  A    between atoms: C_5  and  S_9 
REMARK    3  A    between atoms: C_6  and  C_8 
REMARK    4  A    between atoms: C_8  and  N_17 
REMARK    5  A    between atoms: S_9  and  C_10 
REMARK    6  A    between atoms: C_10  and  C_11 
REMARK    7  A    between atoms: N_17  and  C_19 
REMARK    8  A    between atoms: C_19  and  C_20 
REMARK    9  A    between atoms: C_20  and  N_21 
REMARK   10  A    between atoms: C_30  and  O_34 
ROOT
HETATM    1  C           1     175.325 183.359 271.245  0.00  0.00     0.130 A 
HETATM    2  C           1     175.429 184.719 271.492  0.00  0.00    -0.008 A 
HETATM    3  N           1     175.035 182.835 270.034  0.00  0.00    -0.253 NA
HETATM    4  C           1     174.842 183.712 269.025  0.00  0.00     0.101 A 
HETATM    5  C           1     174.926 185.088 269.173  0.00  0.00     0.006 A 
HETATM    6  C           1     175.225 185.596 270.432  0.00  0.00     0.025 A 
ENDROOT
BRANCH   5   7
HETATM    7  C           1     174.700 186.000 268.009  0.00  0.00     0.311 C 
BRANCH   7   8
HETATM    8  N           1     175.494 187.189 268.169  0.00  0.00     0.089 N 
HETATM    9  H           1     176.003 187.140 269.051  0.00  0.00     0.316 HD
BRANCH   8  10
HETATM   10  C           1     174.598 188.313 268.194  0.00  0.00     0.300 C 
BRANCH  10  11
HETATM   11  C           1     175.217 189.438 269.013  0.00  0.00     0.302 C 
BRANCH  11  12
HETATM   12  N           1     174.520 189.562 270.264  0.00  0.00     0.093 N 
HETATM   13  C           1     173.328 188.700 270.178  0.00  0.00     0.302 C 
HETATM   14  C           1     172.611 188.526 271.536  0.00  0.00     0.302 C 
HETATM   15  N           1     173.504 188.025 272.596  0.00  0.00     0.087 N 
HETATM   16  C           1     172.787 188.145 273.837  0.00  0.00     0.310 C 
HETATM   17  C           1     174.696 188.887 272.682  0.00  0.00     0.302 C 
HETATM   18  C           1     175.411 189.061 271.325  0.00  0.00     0.302 C 
ENDBRANCH  11  12
ENDBRANCH  10  11
ENDBRANCH   8  10
ENDBRANCH   7   8
ENDBRANCH   5   7
BRANCH   4  19
HETATM   19  S           1     174.452 183.051 267.381  0.00  0.00    -0.105 SA
BRANCH  19  20
HETATM   20  C           1     176.161 182.550 267.036  0.00  0.00     0.119 C 
BRANCH  20  21
HETATM   21  C           1     176.527 182.947 265.639  0.00  0.00    -0.049 A 
HETATM   22  C           1     177.491 182.223 264.938  0.00  0.00     0.008 A 
HETATM   23  C           1     177.830 182.592 263.637  0.00  0.00     0.001 A 
HETATM   24  C           1     177.207 183.688 263.037  0.00  0.00     0.000 A 
HETATM   25  C           1     176.243 184.412 263.739  0.00  0.00     0.001 A 
HETATM   26  C           1     175.904 184.041 265.040  0.00  0.00     0.008 A 
ENDBRANCH  20  21
ENDBRANCH  19  20
ENDBRANCH   4  19
BRANCH   2  27
HETATM   27  C           1     175.719 185.174 272.715  0.00  0.00    -0.021 A 
HETATM   28  C           1     176.854 185.959 272.916  0.00  0.00     0.015 A 
HETATM   29  C           1     177.156 186.433 274.192  0.00  0.00     0.041 A 
HETATM   30  C           1     176.324 186.123 275.267  0.00  0.00     0.106 A 
HETATM   31  C           1     175.189 185.337 275.066  0.00  0.00     0.150 A 
HETATM   32  F           1     174.401 185.043 276.084  0.00  0.00    -0.203 F 
HETATM   33  C           1     174.887 184.863 273.790  0.00  0.00     0.057 A 
BRANCH  30  34
HETATM   34  O           1     176.617 186.583 276.507  0.00  0.00    -0.353 OA
HETATM   35  C           1     177.829 186.046 276.964  0.00  0.00     0.210 C 
ENDBRANCH  30  34
ENDBRANCH   2  27
TORSDOF 10
ENDMDL
