MODEL 1
REMARK VINA RESULT:      -7.6      0.000      0.000
REMARK  10 active torsions:
REMARK  status: ('A' for Active; 'I' for Inactive)
REMARK    1  A    between atoms: C_2  and  C_18 
REMARK    2  A    between atoms: C_5  and  S_9 
REMARK    3  A    between atoms: C_6  and  C_8 
REMARK    4  A    between atoms: C_8  and  N_17 
REMARK    5  A    between atoms: S_9  and  C_10 
REMARK    6  A    between atoms: C_10  and  C_11 
REMARK    7  A    between atoms: N_17  and  C_19 
REMARK    8  A    between atoms: C_19  and  C_20 
REMARK    9  A    between atoms: C_20  and  N_21 
REMARK   10  A    between atoms: C_30  and  O_33 
ROOT
HETATM    1  C           1     174.692 186.852 280.188  0.00  0.00     0.101 A 
HETATM    2  C           1     173.637 186.332 280.921  0.00  0.00    -0.010 A 
HETATM    3  N           1     174.647 187.064 278.855  0.00  0.00    -0.359 N 
ATOM      4  HN          1     175.444 187.449 278.347  1.00  0.00     0.166 HD
HETATM    5  C           1     173.494 186.743 278.229  0.00  0.00     0.077 A 
HETATM    6  C           1     172.387 186.218 278.875  0.00  0.00     0.004 A 
HETATM    7  C           1     172.464 186.010 280.248  0.00  0.00     0.025 A 
ENDROOT
BRANCH   6   8
HETATM    8  C           1     171.141 185.884 278.116  0.00  0.00     0.311 C 
BRANCH   8   9
HETATM    9  N           1     170.053 186.692 278.600  0.00  0.00     0.089 N 
HETATM   10  H           1     169.219 186.114 278.699  0.00  0.00     0.316 HD
BRANCH   9  11
HETATM   11  C           1     169.810 187.723 277.627  0.00  0.00     0.300 C 
BRANCH  11  12
HETATM   12  C           1     170.326 189.054 278.159  0.00  0.00     0.302 C 
BRANCH  12  13
HETATM   13  N           1     170.043 189.152 279.565  0.00  0.00     0.093 N 
HETATM   14  C           1     171.288 189.583 280.226  0.00  0.00     0.302 C 
HETATM   15  C           1     171.080 189.978 281.703  0.00  0.00     0.302 C 
HETATM   16  N           1     170.047 191.013 281.882  0.00  0.00     0.087 N 
HETATM   17  C           1     169.785 191.105 283.293  0.00  0.00     0.310 C 
HETATM   18  C           1     168.802 190.583 281.221  0.00  0.00     0.302 C 
HETATM   19  C           1     169.010 190.187 279.744  0.00  0.00     0.302 C 
ENDBRANCH  12  13
ENDBRANCH  11  12
ENDBRANCH   9  11
ENDBRANCH   8   9
ENDBRANCH   6   8
BRANCH   5  20
HETATM   20  S           1     173.390 187.014 276.437  0.00  0.00    -0.107 SA
BRANCH  20  21
HETATM   21  C           1     174.214 185.450 276.025  0.00  0.00     0.119 C 
BRANCH  21  22
HETATM   22  C           1     175.615 185.727 275.575  0.00  0.00    -0.049 A 
HETATM   23  C           1     176.679 185.553 276.460  0.00  0.00     0.008 A 
HETATM   24  C           1     177.984 185.812 276.042  0.00  0.00     0.001 A 
HETATM   25  C           1     178.226 186.245 274.739  0.00  0.00     0.000 A 
HETATM   26  C           1     177.162 186.420 273.854  0.00  0.00     0.001 A 
HETATM   27  C           1     175.857 186.161 274.272  0.00  0.00     0.008 A 
ENDBRANCH  21  22
ENDBRANCH  20  21
ENDBRANCH   5  20
BRANCH   2  28
HETATM   28  C           1     173.746 186.144 282.240  0.00  0.00    -0.024 A 
HETATM   29  C           1     173.070 186.987 283.123  0.00  0.00     0.015 A 
HETATM   30  C           1     173.182 186.791 284.500  0.00  0.00     0.037 A 
HETATM   31  C           1     173.971 185.751 284.993  0.00  0.00     0.068 A 
HETATM   32  C           1     174.647 184.909 284.111  0.00  0.00     0.037 A 
HETATM   33  C           1     174.534 185.105 282.735  0.00  0.00     0.015 A 
BRANCH  31  34
HETATM   34  O           1     174.081 185.560 286.330  0.00  0.00    -0.356 OA
HETATM   35  C           1     172.964 184.876 286.829  0.00  0.00     0.210 C 
ENDBRANCH  31  34
ENDBRANCH   2  28
TORSDOF 10
ENDMDL
MODEL 2
REMARK VINA RESULT:      -7.5      8.010     12.925
REMARK  10 active torsions:
REMARK  status: ('A' for Active; 'I' for Inactive)
REMARK    1  A    between atoms: C_2  and  C_18 
REMARK    2  A    between atoms: C_5  and  S_9 
REMARK    3  A    between atoms: C_6  and  C_8 
REMARK    4  A    between atoms: C_8  and  N_17 
REMARK    5  A    between atoms: S_9  and  C_10 
REMARK    6  A    between atoms: C_10  and  C_11 
REMARK    7  A    between atoms: N_17  and  C_19 
REMARK    8  A    between atoms: C_19  and  C_20 
REMARK    9  A    between atoms: C_20  and  N_21 
REMARK   10  A    between atoms: C_30  and  O_33 
ROOT
HETATM    1  C           1     174.595 186.458 272.023  0.00  0.00     0.101 A 
HETATM    2  C           1     175.674 185.667 272.382  0.00  0.00    -0.010 A 
HETATM    3  N           1     174.032 186.447 270.794  0.00  0.00    -0.359 N 
ATOM      4  HN          1     173.238 187.044 270.564  1.00  0.00     0.166 HD
HETATM    5  C           1     174.575 185.607 269.887  0.00  0.00     0.077 A 
HETATM    6  C           1     175.654 184.779 270.152  0.00  0.00     0.004 A 
HETATM    7  C           1     176.212 184.813 271.426  0.00  0.00     0.025 A 
ENDROOT
BRANCH   6   8
HETATM    8  C           1     176.204 183.872 269.096  0.00  0.00     0.311 C 
BRANCH   8   9
HETATM    9  N           1     177.348 184.491 268.480  0.00  0.00     0.089 N 
HETATM   10  H           1     177.310 185.499 268.629  0.00  0.00     0.316 HD
BRANCH   9  11
HETATM   11  C           1     177.289 184.211 267.071  0.00  0.00     0.300 C 
BRANCH  11  12
HETATM   12  C           1     176.340 183.045 266.824  0.00  0.00     0.302 C 
BRANCH  12  13
HETATM   13  N           1     176.437 182.630 265.451  0.00  0.00     0.093 N 
HETATM   14  C           1     176.569 183.853 264.639  0.00  0.00     0.302 C 
HETATM   15  C           1     176.937 183.564 263.169  0.00  0.00     0.302 C 
HETATM   16  N           1     178.159 182.751 263.031  0.00  0.00     0.087 N 
HETATM   17  C           1     178.245 182.354 261.652  0.00  0.00     0.310 C 
HETATM   18  C           1     178.028 181.528 263.842  0.00  0.00     0.302 C 
HETATM   19  C           1     177.658 181.817 265.313  0.00  0.00     0.302 C 
ENDBRANCH  12  13
ENDBRANCH  11  12
ENDBRANCH   9  11
ENDBRANCH   8   9
ENDBRANCH   6   8
BRANCH   5  20
HETATM   20  S           1     173.850 185.560 268.223  0.00  0.00    -0.107 SA
BRANCH  20  21
HETATM   21  C           1     174.593 187.137 267.717  0.00  0.00     0.119 C 
BRANCH  21  22
HETATM   22  C           1     173.510 188.136 267.451  0.00  0.00    -0.049 A 
HETATM   23  C           1     172.339 187.740 266.805  0.00  0.00     0.008 A 
HETATM   24  C           1     171.331 188.670 266.557  0.00  0.00     0.001 A 
HETATM   25  C           1     171.492 189.997 266.955  0.00  0.00     0.000 A 
HETATM   26  C           1     172.663 190.393 267.601  0.00  0.00     0.001 A 
HETATM   27  C           1     173.672 189.463 267.848  0.00  0.00     0.008 A 
ENDBRANCH  21  22
ENDBRANCH  20  21
ENDBRANCH   5  20
BRANCH   2  28
HETATM   28  C           1     176.186 185.725 273.616  0.00  0.00    -0.024 A 
HETATM   29  C           1     177.420 186.340 273.831  0.00  0.00     0.015 A 
HETATM   30  C           1     177.953 186.402 275.119  0.00  0.00     0.037 A 
HETATM   31  C           1     177.253 185.848 276.191  0.00  0.00     0.068 A 
HETATM   32  C           1     176.020 185.232 275.976  0.00  0.00     0.037 A 
HETATM   33  C           1     175.486 185.171 274.688  0.00  0.00     0.015 A 
BRANCH  31  34
HETATM   34  O           1     177.771 185.907 277.442  0.00  0.00    -0.356 OA
HETATM   35  C           1     178.937 185.135 277.535  0.00  0.00     0.210 C 
ENDBRANCH  31  34
ENDBRANCH   2  28
TORSDOF 10
ENDMDL
MODEL 3
REMARK VINA RESULT:      -7.5      2.062      3.621
REMARK  10 active torsions:
REMARK  status: ('A' for Active; 'I' for Inactive)
REMARK    1  A    between atoms: C_2  and  C_18 
REMARK    2  A    between atoms: C_5  and  S_9 
REMARK    3  A    between atoms: C_6  and  C_8 
REMARK    4  A    between atoms: C_8  and  N_17 
REMARK    5  A    between atoms: S_9  and  C_10 
REMARK    6  A    between atoms: C_10  and  C_11 
REMARK    7  A    between atoms: N_17  and  C_19 
REMARK    8  A    between atoms: C_19  and  C_20 
REMARK    9  A    between atoms: C_20  and  N_21 
REMARK   10  A    between atoms: C_30  and  O_33 
ROOT
HETATM    1  C           1     174.686 186.832 280.250  0.00  0.00     0.101 A 
HETATM    2  C           1     173.631 186.272 280.953  0.00  0.00    -0.010 A 
HETATM    3  N           1     174.661 187.066 278.920  0.00  0.00    -0.359 N 
ATOM      4  HN          1     175.456 187.480 278.434  1.00  0.00     0.166 HD
HETATM    5  C           1     173.530 186.723 278.265  0.00  0.00     0.077 A 
HETATM    6  C           1     172.425 186.158 278.881  0.00  0.00     0.004 A 
HETATM    7  C           1     172.480 185.929 280.252  0.00  0.00     0.025 A 
ENDROOT
BRANCH   6   8
HETATM    8  C           1     171.204 185.803 278.092  0.00  0.00     0.311 C 
BRANCH   8   9
HETATM    9  N           1     170.079 186.550 278.586  0.00  0.00     0.089 N 
HETATM   10  H           1     169.267 185.936 278.654  0.00  0.00     0.316 HD
BRANCH   9  11
HETATM   11  C           1     169.806 187.603 277.646  0.00  0.00     0.300 C 
BRANCH  11  12
HETATM   12  C           1     169.314 186.999 276.336  0.00  0.00     0.302 C 
BRANCH  12  13
HETATM   13  N           1     169.571 187.915 275.259  0.00  0.00     0.093 N 
HETATM   14  C           1     170.337 189.041 275.824  0.00  0.00     0.302 C 
HETATM   15  C           1     170.907 189.984 274.744  0.00  0.00     0.302 C 
HETATM   16  N           1     171.733 189.282 273.745  0.00  0.00     0.087 N 
HETATM   17  C           1     171.989 190.215 272.681  0.00  0.00     0.310 C 
HETATM   18  C           1     170.967 188.157 273.180  0.00  0.00     0.302 C 
HETATM   19  C           1     170.396 187.214 274.260  0.00  0.00     0.302 C 
ENDBRANCH  12  13
ENDBRANCH  11  12
ENDBRANCH   9  11
ENDBRANCH   8   9
ENDBRANCH   6   8
BRANCH   5  20
HETATM   20  S           1     173.454 187.021 276.476  0.00  0.00    -0.107 SA
BRANCH  20  21
HETATM   21  C           1     174.269 185.455 276.053  0.00  0.00     0.119 C 
BRANCH  21  22
HETATM   22  C           1     175.665 185.730 275.586  0.00  0.00    -0.049 A 
HETATM   23  C           1     176.734 185.600 276.472  0.00  0.00     0.008 A 
HETATM   24  C           1     178.035 185.856 276.038  0.00  0.00     0.001 A 
HETATM   25  C           1     178.266 186.242 274.718  0.00  0.00     0.000 A 
HETATM   26  C           1     177.196 186.372 273.833  0.00  0.00     0.001 A 
HETATM   27  C           1     175.896 186.117 274.267  0.00  0.00     0.008 A 
ENDBRANCH  21  22
ENDBRANCH  20  21
ENDBRANCH   5  20
BRANCH   2  28
HETATM   28  C           1     173.719 186.066 282.271  0.00  0.00    -0.024 A 
HETATM   29  C           1     174.818 185.388 282.800  0.00  0.00     0.015 A 
HETATM   30  C           1     174.910 185.174 284.175  0.00  0.00     0.037 A 
HETATM   31  C           1     173.902 185.637 285.022  0.00  0.00     0.068 A 
HETATM   32  C           1     172.803 186.313 284.494  0.00  0.00     0.037 A 
HETATM   33  C           1     172.712 186.528 283.118  0.00  0.00     0.015 A 
BRANCH  31  34
HETATM   34  O           1     173.991 185.428 286.358  0.00  0.00    -0.356 OA
HETATM   35  C           1     175.324 185.226 286.743  0.00  0.00     0.210 C 
ENDBRANCH  31  34
ENDBRANCH   2  28
TORSDOF 10
ENDMDL
MODEL 4
REMARK VINA RESULT:      -7.5      1.771      2.550
REMARK  10 active torsions:
REMARK  status: ('A' for Active; 'I' for Inactive)
REMARK    1  A    between atoms: C_2  and  C_18 
REMARK    2  A    between atoms: C_5  and  S_9 
REMARK    3  A    between atoms: C_6  and  C_8 
REMARK    4  A    between atoms: C_8  and  N_17 
REMARK    5  A    between atoms: S_9  and  C_10 
REMARK    6  A    between atoms: C_10  and  C_11 
REMARK    7  A    between atoms: N_17  and  C_19 
REMARK    8  A    between atoms: C_19  and  C_20 
REMARK    9  A    between atoms: C_20  and  N_21 
REMARK   10  A    between atoms: C_30  and  O_33 
ROOT
HETATM    1  C           1     174.671 186.932 280.108  0.00  0.00     0.101 A 
HETATM    2  C           1     173.642 186.362 280.840  0.00  0.00    -0.010 A 
HETATM    3  N           1     174.621 187.129 278.772  0.00  0.00    -0.359 N 
ATOM      4  HN          1     175.398 187.552 278.264  1.00  0.00     0.166 HD
HETATM    5  C           1     173.492 186.737 278.143  0.00  0.00     0.077 A 
HETATM    6  C           1     172.412 186.158 278.789  0.00  0.00     0.004 A 
HETATM    7  C           1     172.492 185.968 280.165  0.00  0.00     0.025 A 
ENDROOT
BRANCH   6   8
HETATM    8  C           1     171.190 185.749 278.028  0.00  0.00     0.311 C 
BRANCH   8   9
HETATM    9  N           1     170.063 186.522 278.476  0.00  0.00     0.089 N 
HETATM   10  H           1     169.288 185.897 278.696  0.00  0.00     0.316 HD
BRANCH   9  11
HETATM   11  C           1     169.682 187.400 277.402  0.00  0.00     0.300 C 
BRANCH  11  12
HETATM   12  C           1     169.429 188.797 277.954  0.00  0.00     0.302 C 
BRANCH  12  13
HETATM   13  N           1     170.460 189.688 277.496  0.00  0.00     0.093 N 
HETATM   14  C           1     170.556 189.519 276.035  0.00  0.00     0.302 C 
HETATM   15  C           1     171.442 190.589 275.362  0.00  0.00     0.302 C 
HETATM   16  N           1     171.015 191.966 275.669  0.00  0.00     0.087 N 
HETATM   17  C           1     172.052 192.842 275.195  0.00  0.00     0.310 C 
HETATM   18  C           1     170.919 192.134 277.130  0.00  0.00     0.302 C 
HETATM   19  C           1     170.034 191.064 277.803  0.00  0.00     0.302 C 
ENDBRANCH  12  13
ENDBRANCH  11  12
ENDBRANCH   9  11
ENDBRANCH   8   9
ENDBRANCH   6   8
BRANCH   5  20
HETATM   20  S           1     173.383 186.984 276.348  0.00  0.00    -0.107 SA
BRANCH  20  21
HETATM   21  C           1     174.229 185.428 275.955  0.00  0.00     0.119 C 
BRANCH  21  22
HETATM   22  C           1     175.635 185.718 275.530  0.00  0.00    -0.049 A 
HETATM   23  C           1     176.689 185.517 276.422  0.00  0.00     0.008 A 
HETATM   24  C           1     177.998 185.788 276.027  0.00  0.00     0.001 A 
HETATM   25  C           1     178.255 186.260 274.740  0.00  0.00     0.000 A 
HETATM   26  C           1     177.202 186.461 273.848  0.00  0.00     0.001 A 
HETATM   27  C           1     175.892 186.191 274.243  0.00  0.00     0.008 A 
ENDBRANCH  21  22
ENDBRANCH  20  21
ENDBRANCH   5  20
BRANCH   2  28
HETATM   28  C           1     173.754 186.193 282.162  0.00  0.00    -0.024 A 
HETATM   29  C           1     172.892 186.868 283.027  0.00  0.00     0.015 A 
HETATM   30  C           1     173.007 186.691 284.406  0.00  0.00     0.037 A 
HETATM   31  C           1     173.986 185.840 284.920  0.00  0.00     0.068 A 
HETATM   32  C           1     174.849 185.167 284.056  0.00  0.00     0.037 A 
HETATM   33  C           1     174.732 185.343 282.677  0.00  0.00     0.015 A 
BRANCH  31  34
HETATM   34  O           1     174.099 185.669 286.259  0.00  0.00    -0.356 OA
HETATM   35  C           1     175.372 185.186 286.594  0.00  0.00     0.210 C 
ENDBRANCH  31  34
ENDBRANCH   2  28
TORSDOF 10
ENDMDL
MODEL 5
REMARK VINA RESULT:      -7.4      3.019      7.902
REMARK  10 active torsions:
REMARK  status: ('A' for Active; 'I' for Inactive)
REMARK    1  A    between atoms: C_2  and  C_18 
REMARK    2  A    between atoms: C_5  and  S_9 
REMARK    3  A    between atoms: C_6  and  C_8 
REMARK    4  A    between atoms: C_8  and  N_17 
REMARK    5  A    between atoms: S_9  and  C_10 
REMARK    6  A    between atoms: C_10  and  C_11 
REMARK    7  A    between atoms: N_17  and  C_19 
REMARK    8  A    between atoms: C_19  and  C_20 
REMARK    9  A    between atoms: C_20  and  N_21 
REMARK   10  A    between atoms: C_30  and  O_33 
ROOT
HETATM    1  C           1     173.508 189.241 283.453  0.00  0.00     0.101 A 
HETATM    2  C           1     172.583 189.482 282.450  0.00  0.00    -0.010 A 
HETATM    3  N           1     174.433 188.258 283.399  0.00  0.00    -0.359 N 
ATOM      4  HN          1     175.100 188.108 284.157  1.00  0.00     0.166 HD
HETATM    5  C           1     174.431 187.482 282.293  0.00  0.00     0.077 A 
HETATM    6  C           1     173.546 187.646 281.240  0.00  0.00     0.004 A 
HETATM    7  C           1     172.604 188.666 281.324  0.00  0.00     0.025 A 
ENDROOT
BRANCH   6   8
HETATM    8  C           1     173.601 186.748 280.044  0.00  0.00     0.311 C 
BRANCH   8   9
HETATM    9  N           1     172.397 185.964 279.976  0.00  0.00     0.089 N 
HETATM   10  H           1     172.469 185.176 280.619  0.00  0.00     0.316 HD
BRANCH   9  11
HETATM   11  C           1     172.271 185.474 278.630  0.00  0.00     0.300 C 
BRANCH  11  12
HETATM   12  C           1     172.982 186.424 277.675  0.00  0.00     0.302 C 
BRANCH  12  13
HETATM   13  N           1     173.383 185.708 276.494  0.00  0.00     0.093 N 
HETATM   14  C           1     173.022 186.548 275.338  0.00  0.00     0.302 C 
HETATM   15  C           1     173.615 186.032 274.010  0.00  0.00     0.302 C 
HETATM   16  N           1     175.079 185.868 274.060  0.00  0.00     0.087 N 
HETATM   17  C           1     175.462 185.160 272.868  0.00  0.00     0.310 C 
HETATM   18  C           1     175.440 185.028 275.216  0.00  0.00     0.302 C 
HETATM   19  C           1     174.846 185.544 276.544  0.00  0.00     0.302 C 
ENDBRANCH  12  13
ENDBRANCH  11  12
ENDBRANCH   9  11
ENDBRANCH   8   9
ENDBRANCH   6   8
BRANCH   5  20
HETATM   20  S           1     175.658 186.150 282.180  0.00  0.00    -0.107 SA
BRANCH  20  21
HETATM   21  C           1     174.452 184.838 282.524  0.00  0.00     0.119 C 
BRANCH  21  22
HETATM   22  C           1     174.044 184.901 283.963  0.00  0.00    -0.049 A 
HETATM   23  C           1     172.720 185.184 284.301  0.00  0.00     0.008 A 
HETATM   24  C           1     172.339 185.244 285.641  0.00  0.00     0.001 A 
HETATM   25  C           1     173.281 185.020 286.644  0.00  0.00     0.000 A 
HETATM   26  C           1     174.605 184.736 286.307  0.00  0.00     0.001 A 
HETATM   27  C           1     174.986 184.678 284.967  0.00  0.00     0.008 A 
ENDBRANCH  21  22
ENDBRANCH  20  21
ENDBRANCH   5  20
BRANCH   2  28
HETATM   28  C           1     171.691 190.472 282.564  0.00  0.00    -0.024 A 
HETATM   29  C           1     171.921 191.694 281.932  0.00  0.00     0.015 A 
HETATM   30  C           1     170.990 192.726 282.050  0.00  0.00     0.037 A 
HETATM   31  C           1     169.829 192.536 282.801  0.00  0.00     0.068 A 
HETATM   32  C           1     169.600 191.315 283.434  0.00  0.00     0.037 A 
HETATM   33  C           1     170.531 190.282 283.315  0.00  0.00     0.015 A 
BRANCH  31  34
HETATM   34  O           1     168.925 193.539 282.916  0.00  0.00    -0.356 OA
HETATM   35  C           1     168.974 194.384 281.798  0.00  0.00     0.210 C 
ENDBRANCH  31  34
ENDBRANCH   2  28
TORSDOF 10
ENDMDL
MODEL 6
REMARK VINA RESULT:      -7.3      3.719      8.319
REMARK  10 active torsions:
REMARK  status: ('A' for Active; 'I' for Inactive)
REMARK    1  A    between atoms: C_2  and  C_18 
REMARK    2  A    between atoms: C_5  and  S_9 
REMARK    3  A    between atoms: C_6  and  C_8 
REMARK    4  A    between atoms: C_8  and  N_17 
REMARK    5  A    between atoms: S_9  and  C_10 
REMARK    6  A    between atoms: C_10  and  C_11 
REMARK    7  A    between atoms: N_17  and  C_19 
REMARK    8  A    between atoms: C_19  and  C_20 
REMARK    9  A    between atoms: C_20  and  N_21 
REMARK   10  A    between atoms: C_30  and  O_33 
ROOT
HETATM    1  C           1     175.500 186.707 277.495  0.00  0.00     0.101 A 
HETATM    2  C           1     174.687 186.112 276.543  0.00  0.00    -0.010 A 
HETATM    3  N           1     175.106 186.965 278.762  0.00  0.00    -0.359 N 
ATOM      4  HN          1     175.731 187.405 279.437  1.00  0.00     0.166 HD
HETATM    5  C           1     173.843 186.613 279.088  0.00  0.00     0.077 A 
HETATM    6  C           1     172.958 186.016 278.206  0.00  0.00     0.004 A 
HETATM    7  C           1     173.392 185.762 276.909  0.00  0.00     0.025 A 
ENDROOT
BRANCH   6   8
HETATM    8  C           1     171.571 185.652 278.637  0.00  0.00     0.311 C 
BRANCH   8   9
HETATM    9  N           1     170.666 185.822 277.533  0.00  0.00     0.089 N 
HETATM   10  H           1     171.189 185.803 276.658  0.00  0.00     0.316 HD
BRANCH   9  11
HETATM   11  C           1     170.029 187.102 277.683  0.00  0.00     0.300 C 
BRANCH  11  12
HETATM   12  C           1     169.747 187.694 276.308  0.00  0.00     0.302 C 
BRANCH  12  13
HETATM   13  N           1     170.880 187.474 275.450  0.00  0.00     0.093 N 
HETATM   14  C           1     170.355 187.280 274.087  0.00  0.00     0.302 C 
HETATM   15  C           1     171.461 187.284 273.010  0.00  0.00     0.302 C 
HETATM   16  N           1     172.294 188.499 273.046  0.00  0.00     0.087 N 
HETATM   17  C           1     173.414 188.266 272.175  0.00  0.00     0.310 C 
HETATM   18  C           1     172.818 188.694 274.409  0.00  0.00     0.302 C 
HETATM   19  C           1     171.713 188.688 275.486  0.00  0.00     0.302 C 
ENDBRANCH  12  13
ENDBRANCH  11  12
ENDBRANCH   9  11
ENDBRANCH   8   9
ENDBRANCH   6   8
BRANCH   5  20
HETATM   20  S           1     173.274 186.943 280.780  0.00  0.00    -0.107 SA
BRANCH  20  21
HETATM   21  C           1     174.101 185.485 281.477  0.00  0.00     0.119 C 
BRANCH  21  22
HETATM   22  C           1     173.880 185.448 282.958  0.00  0.00    -0.049 A 
HETATM   23  C           1     172.673 185.896 283.494  0.00  0.00     0.008 A 
HETATM   24  C           1     172.467 185.862 284.873  0.00  0.00     0.001 A 
HETATM   25  C           1     173.467 185.380 285.716  0.00  0.00     0.000 A 
HETATM   26  C           1     174.674 184.931 285.179  0.00  0.00     0.001 A 
HETATM   27  C           1     174.881 184.966 283.801  0.00  0.00     0.008 A 
ENDBRANCH  21  22
ENDBRANCH  20  21
ENDBRANCH   5  20
BRANCH   2  28
HETATM   28  C           1     175.137 185.884 275.305  0.00  0.00    -0.024 A 
HETATM   29  C           1     174.324 185.232 274.377  0.00  0.00     0.015 A 
HETATM   30  C           1     174.792 184.994 273.084  0.00  0.00     0.037 A 
HETATM   31  C           1     176.074 185.408 272.721  0.00  0.00     0.068 A 
HETATM   32  C           1     176.887 186.058 273.649  0.00  0.00     0.037 A 
HETATM   33  C           1     176.418 186.296 274.941  0.00  0.00     0.015 A 
BRANCH  31  34
HETATM   34  O           1     176.530 185.176 271.466  0.00  0.00    -0.356 OA
HETATM   35  C           1     175.492 185.289 270.530  0.00  0.00     0.210 C 
ENDBRANCH  31  34
ENDBRANCH   2  28
TORSDOF 10
ENDMDL
MODEL 7
REMARK VINA RESULT:      -7.3      8.240     12.817
REMARK  10 active torsions:
REMARK  status: ('A' for Active; 'I' for Inactive)
REMARK    1  A    between atoms: C_2  and  C_18 
REMARK    2  A    between atoms: C_5  and  S_9 
REMARK    3  A    between atoms: C_6  and  C_8 
REMARK    4  A    between atoms: C_8  and  N_17 
REMARK    5  A    between atoms: S_9  and  C_10 
REMARK    6  A    between atoms: C_10  and  C_11 
REMARK    7  A    between atoms: N_17  and  C_19 
REMARK    8  A    between atoms: C_19  and  C_20 
REMARK    9  A    between atoms: C_20  and  N_21 
REMARK   10  A    between atoms: C_30  and  O_33 
ROOT
HETATM    1  C           1     176.280 184.294 268.733  0.00  0.00     0.101 A 
HETATM    2  C           1     175.991 184.907 267.525  0.00  0.00    -0.010 A 
HETATM    3  N           1     175.976 184.827 269.937  0.00  0.00    -0.359 N 
ATOM      4  HN          1     176.204 184.347 270.808  1.00  0.00     0.166 HD
HETATM    5  C           1     175.356 186.027 269.929  0.00  0.00     0.077 A 
HETATM    6  C           1     175.027 186.716 268.774  0.00  0.00     0.004 A 
HETATM    7  C           1     175.352 186.142 267.549  0.00  0.00     0.025 A 
ENDROOT
BRANCH   6   8
HETATM    8  C           1     174.338 188.044 268.841  0.00  0.00     0.311 C 
BRANCH   8   9
HETATM    9  N           1     175.163 189.045 268.219  0.00  0.00     0.089 N 
HETATM   10  H           1     176.141 188.875 268.457  0.00  0.00     0.316 HD
BRANCH   9  11
HETATM   11  C           1     174.759 190.325 268.733  0.00  0.00     0.300 C 
BRANCH  11  12
HETATM   12  C           1     175.361 190.529 270.117  0.00  0.00     0.302 C 
BRANCH  12  13
HETATM   13  N           1     174.400 191.178 270.968  0.00  0.00     0.093 N 
HETATM   14  C           1     174.979 192.475 271.361  0.00  0.00     0.302 C 
HETATM   15  C           1     173.965 193.398 272.068  0.00  0.00     0.302 C 
HETATM   16  N           1     172.745 193.627 271.274  0.00  0.00     0.087 N 
HETATM   17  C           1     171.800 194.285 272.137  0.00  0.00     0.310 C 
HETATM   18  C           1     172.166 192.330 270.881  0.00  0.00     0.302 C 
HETATM   19  C           1     173.181 191.406 270.175  0.00  0.00     0.302 C 
ENDBRANCH  12  13
ENDBRANCH  11  12
ENDBRANCH   9  11
ENDBRANCH   8   9
ENDBRANCH   6   8
BRANCH   5  20
HETATM   20  S           1     174.929 186.779 271.525  0.00  0.00    -0.107 SA
BRANCH  20  21
HETATM   21  C           1     175.064 185.217 272.441  0.00  0.00     0.119 C 
BRANCH  21  22
HETATM   22  C           1     175.882 185.432 273.676  0.00  0.00    -0.049 A 
HETATM   23  C           1     177.087 186.131 273.601  0.00  0.00     0.008 A 
HETATM   24  C           1     177.850 186.331 274.751  0.00  0.00     0.001 A 
HETATM   25  C           1     177.409 185.833 275.976  0.00  0.00     0.000 A 
HETATM   26  C           1     176.204 185.134 276.051  0.00  0.00     0.001 A 
HETATM   27  C           1     175.441 184.933 274.901  0.00  0.00     0.008 A 
ENDBRANCH  21  22
ENDBRANCH  20  21
ENDBRANCH   5  20
BRANCH   2  28
HETATM   28  C           1     176.319 184.327 266.366  0.00  0.00    -0.024 A 
HETATM   29  C           1     175.823 184.837 265.165  0.00  0.00     0.015 A 
HETATM   30  C           1     176.166 184.232 263.956  0.00  0.00     0.037 A 
HETATM   31  C           1     177.005 183.117 263.947  0.00  0.00     0.068 A 
HETATM   32  C           1     177.499 182.607 265.147  0.00  0.00     0.037 A 
HETATM   33  C           1     177.156 183.212 266.356  0.00  0.00     0.015 A 
BRANCH  31  34
HETATM   34  O           1     177.337 182.529 262.772  0.00  0.00    -0.356 OA
HETATM   35  C           1     178.689 182.158 262.766  0.00  0.00     0.210 C 
ENDBRANCH  31  34
ENDBRANCH   2  28
TORSDOF 10
ENDMDL
MODEL 8
REMARK VINA RESULT:      -7.3      2.864      5.701
REMARK  10 active torsions:
REMARK  status: ('A' for Active; 'I' for Inactive)
REMARK    1  A    between atoms: C_2  and  C_18 
REMARK    2  A    between atoms: C_5  and  S_9 
REMARK    3  A    between atoms: C_6  and  C_8 
REMARK    4  A    between atoms: C_8  and  N_17 
REMARK    5  A    between atoms: S_9  and  C_10 
REMARK    6  A    between atoms: C_10  and  C_11 
REMARK    7  A    between atoms: N_17  and  C_19 
REMARK    8  A    between atoms: C_19  and  C_20 
REMARK    9  A    between atoms: C_20  and  N_21 
REMARK   10  A    between atoms: C_30  and  O_33 
ROOT
HETATM    1  C           1     170.830 189.068 279.711  0.00  0.00     0.101 A 
HETATM    2  C           1     171.514 189.246 280.903  0.00  0.00    -0.010 A 
HETATM    3  N           1     171.004 188.002 278.898  0.00  0.00    -0.359 N 
ATOM      4  HN          1     170.483 187.903 278.027  1.00  0.00     0.166 HD
HETATM    5  C           1     171.902 187.076 279.298  0.00  0.00     0.077 A 
HETATM    6  C           1     172.633 187.167 280.471  0.00  0.00     0.004 A 
HETATM    7  C           1     172.433 188.275 281.287  0.00  0.00     0.025 A 
ENDROOT
BRANCH   6   8
HETATM    8  C           1     173.613 186.100 280.851  0.00  0.00     0.311 C 
BRANCH   8   9
HETATM    9  N           1     173.070 185.310 281.923  0.00  0.00     0.089 N 
HETATM   10  H           1     172.375 185.857 282.430  0.00  0.00     0.316 HD
BRANCH   9  11
HETATM   11  C           1     174.153 184.973 282.807  0.00  0.00     0.300 C 
BRANCH  11  12
HETATM   12  C           1     174.430 186.146 283.740  0.00  0.00     0.302 C 
BRANCH  12  13
HETATM   13  N           1     173.642 186.006 284.934  0.00  0.00     0.093 N 
HETATM   14  C           1     174.545 185.514 285.990  0.00  0.00     0.302 C 
HETATM   15  C           1     173.907 185.553 287.395  0.00  0.00     0.302 C 
HETATM   16  N           1     173.408 186.890 287.762  0.00  0.00     0.087 N 
HETATM   17  C           1     172.632 186.733 288.963  0.00  0.00     0.310 C 
HETATM   18  C           1     172.505 187.383 286.706  0.00  0.00     0.302 C 
HETATM   19  C           1     173.143 187.342 285.301  0.00  0.00     0.302 C 
ENDBRANCH  12  13
ENDBRANCH  11  12
ENDBRANCH   9  11
ENDBRANCH   8   9
ENDBRANCH   6   8
BRANCH   5  20
HETATM   20  S           1     172.166 185.628 278.235  0.00  0.00    -0.107 SA
BRANCH  20  21
HETATM   21  C           1     172.796 186.606 276.843  0.00  0.00     0.119 C 
BRANCH  21  22
HETATM   22  C           1     174.211 186.210 276.555  0.00  0.00    -0.049 A 
HETATM   23  C           1     175.259 186.805 277.257  0.00  0.00     0.008 A 
HETATM   24  C           1     176.577 186.437 276.989  0.00  0.00     0.001 A 
HETATM   25  C           1     176.848 185.473 276.019  0.00  0.00     0.000 A 
HETATM   26  C           1     175.800 184.877 275.316  0.00  0.00     0.001 A 
HETATM   27  C           1     174.482 185.246 275.584  0.00  0.00     0.008 A 
ENDBRANCH  21  22
ENDBRANCH  20  21
ENDBRANCH   5  20
BRANCH   2  28
HETATM   28  C           1     171.297 190.324 281.663  0.00  0.00    -0.024 A 
HETATM   29  C           1     170.357 190.275 282.693  0.00  0.00     0.015 A 
HETATM   30  C           1     170.131 191.400 283.486  0.00  0.00     0.037 A 
HETATM   31  C           1     170.845 192.575 283.250  0.00  0.00     0.068 A 
HETATM   32  C           1     171.784 192.625 282.220  0.00  0.00     0.037 A 
HETATM   33  C           1     172.010 191.499 281.427  0.00  0.00     0.015 A 
BRANCH  31  34
HETATM   34  O           1     170.625 193.667 284.020  0.00  0.00    -0.356 OA
HETATM   35  C           1     169.529 193.465 284.870  0.00  0.00     0.210 C 
ENDBRANCH  31  34
ENDBRANCH   2  28
TORSDOF 10
ENDMDL
MODEL 9
REMARK VINA RESULT:      -7.2      5.531     11.022
REMARK  10 active torsions:
REMARK  status: ('A' for Active; 'I' for Inactive)
REMARK    1  A    between atoms: C_2  and  C_18 
REMARK    2  A    between atoms: C_5  and  S_9 
REMARK    3  A    between atoms: C_6  and  C_8 
REMARK    4  A    between atoms: C_8  and  N_17 
REMARK    5  A    between atoms: S_9  and  C_10 
REMARK    6  A    between atoms: C_10  and  C_11 
REMARK    7  A    between atoms: N_17  and  C_19 
REMARK    8  A    between atoms: C_19  and  C_20 
REMARK    9  A    between atoms: C_20  and  N_21 
REMARK   10  A    between atoms: C_30  and  O_33 
ROOT
HETATM    1  C           1     168.647 189.281 288.765  0.00  0.00     0.101 A 
HETATM    2  C           1     168.945 188.888 287.471  0.00  0.00    -0.010 A 
HETATM    3  N           1     168.635 188.439 289.822  0.00  0.00    -0.359 N 
ATOM      4  HN          1     168.410 188.763 290.762  1.00  0.00     0.166 HD
HETATM    5  C           1     168.935 187.146 289.570  0.00  0.00     0.077 A 
HETATM    6  C           1     169.246 186.659 288.311  0.00  0.00     0.004 A 
HETATM    7  C           1     169.250 187.550 287.243  0.00  0.00     0.025 A 
ENDROOT
BRANCH   6   8
HETATM    8  C           1     169.570 185.212 288.105  0.00  0.00     0.311 C 
BRANCH   8   9
HETATM    9  N           1     170.994 185.024 288.175  0.00  0.00     0.089 N 
HETATM   10  H           1     171.428 185.858 288.571  0.00  0.00     0.316 HD
BRANCH   9  11
HETATM   11  C           1     171.474 184.823 286.835  0.00  0.00     0.300 C 
BRANCH  11  12
HETATM   12  C           1     172.997 184.815 286.837  0.00  0.00     0.302 C 
BRANCH  12  13
HETATM   13  N           1     173.483 185.616 285.746  0.00  0.00     0.093 N 
HETATM   14  C           1     174.693 184.951 285.230  0.00  0.00     0.302 C 
HETATM   15  C           1     175.187 185.552 283.897  0.00  0.00     0.302 C 
HETATM   16  N           1     174.149 185.562 282.851  0.00  0.00     0.087 N 
HETATM   17  C           1     174.656 186.358 281.765  0.00  0.00     0.310 C 
HETATM   18  C           1     172.940 186.227 283.367  0.00  0.00     0.302 C 
HETATM   19  C           1     172.446 185.627 284.701  0.00  0.00     0.302 C 
ENDBRANCH  12  13
ENDBRANCH  11  12
ENDBRANCH   9  11
ENDBRANCH   8   9
ENDBRANCH   6   8
BRANCH   5  20
HETATM   20  S           1     168.932 185.981 290.961  0.00  0.00    -0.107 SA
BRANCH  20  21
HETATM   21  C           1     170.251 186.849 291.856  0.00  0.00     0.119 C 
BRANCH  21  22
HETATM   22  C           1     171.582 186.413 291.328  0.00  0.00    -0.049 A 
HETATM   23  C           1     172.128 185.195 291.731  0.00  0.00     0.008 A 
HETATM   24  C           1     173.368 184.789 291.240  0.00  0.00     0.001 A 
HETATM   25  C           1     174.063 185.601 290.344  0.00  0.00     0.000 A 
HETATM   26  C           1     173.517 186.819 289.940  0.00  0.00     0.001 A 
HETATM   27  C           1     172.277 187.226 290.432  0.00  0.00     0.008 A 
ENDBRANCH  21  22
ENDBRANCH  20  21
ENDBRANCH   5  20
BRANCH   2  28
HETATM   28  C           1     168.939 189.771 286.467  0.00  0.00    -0.024 A 
HETATM   29  C           1     169.305 189.370 285.182  0.00  0.00     0.015 A 
HETATM   30  C           1     169.298 190.291 284.135  0.00  0.00     0.037 A 
HETATM   31  C           1     168.924 191.615 284.373  0.00  0.00     0.068 A 
HETATM   32  C           1     168.559 192.016 285.657  0.00  0.00     0.037 A 
HETATM   33  C           1     168.566 191.094 286.704  0.00  0.00     0.015 A 
BRANCH  31  34
HETATM   34  O           1     168.917 192.510 283.356  0.00  0.00    -0.356 OA
HETATM   35  C           1     169.862 193.521 283.576  0.00  0.00     0.210 C 
ENDBRANCH  31  34
ENDBRANCH   2  28
TORSDOF 10
ENDMDL
