MODEL 1
REMARK VINA RESULT:      -9.3      0.000      0.000
REMARK  10 active torsions:
REMARK  status: ('A' for Active; 'I' for Inactive)
REMARK    1  A    between atoms: C_1  and  C_19 
REMARK    2  A    between atoms: C_5  and  S_30 
REMARK    3  A    between atoms: C_6  and  C_8 
REMARK    4  A    between atoms: C_8  and  N_9 
REMARK    5  A    between atoms: N_9  and  C_10 
REMARK    6  A    between atoms: C_10  and  C_11 
REMARK    7  A    between atoms: C_11  and  C_12 
REMARK    8  A    between atoms: N_15  and  C_18 
REMARK    9  A    between atoms: S_30  and  C_37 
REMARK   10  A    between atoms: C_31  and  C_37 
ROOT
HETATM    1  C           1     171.579 189.336 281.036  0.00  0.00    -0.010 A 
HETATM    2  C           1     170.783 188.989 279.955  0.00  0.00     0.101 A 
HETATM    3  N           1     171.024 187.928 279.155  0.00  0.00    -0.359 N 
ATOM      4  HN          1     170.416 187.703 278.367  1.00  0.00     0.166 HD
HETATM    5  C           1     172.110 187.180 279.451  0.00  0.00     0.077 A 
HETATM    6  C           1     172.964 187.446 280.510  0.00  0.00     0.004 A 
HETATM    7  C           1     172.689 188.547 281.315  0.00  0.00     0.025 A 
ENDROOT
BRANCH   6   8
HETATM    8  C           1     174.150 186.573 280.778  0.00  0.00     0.311 C 
BRANCH   8   9
HETATM    9  N           1     175.029 187.229 281.708  0.00  0.00     0.087 N 
HETATM   10  H           1     175.754 187.730 281.195  0.00  0.00     0.316 HD
BRANCH   9  11
HETATM   11  C           1     175.635 186.215 282.528  0.00  0.00     0.270 C 
BRANCH  11  12
HETATM   12  C           1     174.714 185.005 282.604  0.00  0.00     0.034 C 
BRANCH  12  13
HETATM   13  C           1     174.172 184.868 284.020  0.00  0.00    -0.010 C 
HETATM   14  C           1     175.204 185.406 285.007  0.00  0.00     0.035 C 
HETATM   15  C           1     174.635 185.472 286.423  0.00  0.00     0.273 C 
HETATM   16  N           1     173.402 186.259 286.469  0.00  0.00     0.093 N 
HETATM   17  C           1     172.379 185.704 285.582  0.00  0.00     0.273 C 
HETATM   18  C           1     172.865 185.647 284.135  0.00  0.00     0.035 C 
BRANCH  16  19
HETATM   19  C           1     172.915 186.155 287.818  0.00  0.00     0.223 C 
HETATM   20  C           1     174.006 185.657 288.754  0.00  0.00     0.036 C 
HETATM   21  C           1     173.680 186.261 290.119  0.00  0.00     0.002 C 
HETATM   22  C           1     172.581 187.294 289.881  0.00  0.00     0.002 C 
HETATM   23  C           1     172.570 187.524 288.377  0.00  0.00     0.036 C 
ENDBRANCH  16  19
ENDBRANCH  12  13
ENDBRANCH  11  12
ENDBRANCH   9  11
ENDBRANCH   8   9
ENDBRANCH   6   8
BRANCH   5  24
HETATM   24  S           1     172.470 185.743 278.402  0.00  0.00    -0.107 SA
BRANCH  24  25
HETATM   25  C           1     173.106 186.745 277.030  0.00  0.00     0.119 C 
BRANCH  25  26
HETATM   26  C           1     174.474 186.268 276.654  0.00  0.00    -0.049 A 
HETATM   27  C           1     174.627 185.286 275.675  0.00  0.00     0.008 A 
HETATM   28  C           1     175.902 184.841 275.326  0.00  0.00     0.001 A 
HETATM   29  C           1     177.025 185.380 275.955  0.00  0.00     0.000 A 
HETATM   30  C           1     176.873 186.361 276.933  0.00  0.00     0.001 A 
HETATM   31  C           1     175.598 186.806 277.283  0.00  0.00     0.008 A 
ENDBRANCH  25  26
ENDBRANCH  24  25
ENDBRANCH   5  24
BRANCH   1  32
HETATM   32  C           1     171.286 190.400 281.789  0.00  0.00    -0.025 A 
HETATM   33  C           1     170.322 190.300 282.794  0.00  0.00     0.013 A 
HETATM   34  C           1     170.017 191.410 283.580  0.00  0.00     0.007 A 
HETATM   35  C           1     170.674 192.621 283.363  0.00  0.00    -0.062 A 
HETATM   36  C           1     170.346 193.812 284.208  0.00  0.00     0.048 C 
HETATM   37  C           1     171.638 192.722 282.360  0.00  0.00     0.007 A 
HETATM   38  C           1     171.943 191.612 281.573  0.00  0.00     0.013 A 
ENDBRANCH   1  32
TORSDOF 10
ENDMDL
MODEL 2
REMARK VINA RESULT:      -9.3      8.899     12.707
REMARK  10 active torsions:
REMARK  status: ('A' for Active; 'I' for Inactive)
REMARK    1  A    between atoms: C_1  and  C_19 
REMARK    2  A    between atoms: C_5  and  S_30 
REMARK    3  A    between atoms: C_6  and  C_8 
REMARK    4  A    between atoms: C_8  and  N_9 
REMARK    5  A    between atoms: N_9  and  C_10 
REMARK    6  A    between atoms: C_10  and  C_11 
REMARK    7  A    between atoms: C_11  and  C_12 
REMARK    8  A    between atoms: N_15  and  C_18 
REMARK    9  A    between atoms: S_30  and  C_37 
REMARK   10  A    between atoms: C_31  and  C_37 
ROOT
HETATM    1  C           1     175.405 185.391 272.196  0.00  0.00    -0.010 A 
HETATM    2  C           1     175.868 186.111 271.106  0.00  0.00     0.101 A 
HETATM    3  N           1     175.330 186.031 269.869  0.00  0.00    -0.359 N 
ATOM      4  HN          1     175.698 186.577 269.090  1.00  0.00     0.166 HD
HETATM    5  C           1     174.281 185.193 269.718  0.00  0.00     0.077 A 
HETATM    6  C           1     173.748 184.432 270.747  0.00  0.00     0.004 A 
HETATM    7  C           1     174.324 184.536 272.008  0.00  0.00     0.025 A 
ENDROOT
BRANCH   6   8
HETATM    8  C           1     172.584 183.523 270.505  0.00  0.00     0.311 C 
BRANCH   8   9
HETATM    9  N           1     171.516 183.860 271.408  0.00  0.00     0.087 N 
HETATM   10  H           1     170.864 183.078 271.470  0.00  0.00     0.316 HD
BRANCH   9  11
HETATM   11  C           1     170.837 185.010 270.874  0.00  0.00     0.270 C 
BRANCH  11  12
HETATM   12  C           1     170.278 185.846 272.016  0.00  0.00     0.034 C 
BRANCH  12  13
HETATM   13  C           1     171.020 187.175 272.083  0.00  0.00    -0.010 C 
HETATM   14  C           1     172.108 187.089 273.149  0.00  0.00     0.035 C 
HETATM   15  C           1     173.007 188.324 273.124  0.00  0.00     0.273 C 
HETATM   16  N           1     173.586 188.538 271.798  0.00  0.00     0.093 N 
HETATM   17  C           1     172.548 188.698 270.779  0.00  0.00     0.273 C 
HETATM   18  C           1     171.632 187.478 270.718  0.00  0.00     0.035 C 
BRANCH  16  19
HETATM   19  C           1     174.315 189.776 271.878  0.00  0.00     0.223 C 
HETATM   20  C           1     175.517 189.760 270.945  0.00  0.00     0.036 C 
HETATM   21  C           1     175.745 191.218 270.549  0.00  0.00     0.002 C 
HETATM   22  C           1     174.523 191.992 271.038  0.00  0.00     0.002 C 
HETATM   23  C           1     173.480 190.932 271.356  0.00  0.00     0.036 C 
ENDBRANCH  16  19
ENDBRANCH  12  13
ENDBRANCH  11  12
ENDBRANCH   9  11
ENDBRANCH   8   9
ENDBRANCH   6   8
BRANCH   5  24
HETATM   24  S           1     173.528 185.055 268.073  0.00  0.00    -0.107 SA
BRANCH  24  25
HETATM   25  C           1     174.555 186.366 267.352  0.00  0.00     0.119 C 
BRANCH  25  26
HETATM   26  C           1     173.786 187.650 267.330  0.00  0.00    -0.049 A 
HETATM   27  C           1     174.412 188.845 267.682  0.00  0.00     0.008 A 
HETATM   28  C           1     173.694 190.041 267.661  0.00  0.00     0.001 A 
HETATM   29  C           1     172.350 190.041 267.287  0.00  0.00     0.000 A 
HETATM   30  C           1     171.724 188.846 266.936  0.00  0.00     0.001 A 
HETATM   31  C           1     172.441 187.649 266.957  0.00  0.00     0.008 A 
ENDBRANCH  25  26
ENDBRANCH  24  25
ENDBRANCH   5  24
BRANCH   1  32
HETATM   32  C           1     175.982 185.515 273.395  0.00  0.00    -0.025 A 
HETATM   33  C           1     177.188 186.205 273.521  0.00  0.00     0.013 A 
HETATM   34  C           1     177.790 186.334 274.772  0.00  0.00     0.007 A 
HETATM   35  C           1     177.188 185.774 275.898  0.00  0.00    -0.062 A 
HETATM   36  C           1     177.833 185.914 277.240  0.00  0.00     0.048 C 
HETATM   37  C           1     175.981 185.084 275.773  0.00  0.00     0.007 A 
HETATM   38  C           1     175.379 184.954 274.522  0.00  0.00     0.013 A 
ENDBRANCH   1  32
TORSDOF 10
ENDMDL
MODEL 3
REMARK VINA RESULT:      -9.0      6.219     10.834
REMARK  10 active torsions:
REMARK  status: ('A' for Active; 'I' for Inactive)
REMARK    1  A    between atoms: C_1  and  C_19 
REMARK    2  A    between atoms: C_5  and  S_30 
REMARK    3  A    between atoms: C_6  and  C_8 
REMARK    4  A    between atoms: C_8  and  N_9 
REMARK    5  A    between atoms: N_9  and  C_10 
REMARK    6  A    between atoms: C_10  and  C_11 
REMARK    7  A    between atoms: C_11  and  C_12 
REMARK    8  A    between atoms: N_15  and  C_18 
REMARK    9  A    between atoms: S_30  and  C_37 
REMARK   10  A    between atoms: C_31  and  C_37 
ROOT
HETATM    1  C           1     175.406 185.467 272.233  0.00  0.00    -0.010 A 
HETATM    2  C           1     175.928 184.722 271.188  0.00  0.00     0.101 A 
HETATM    3  N           1     175.335 184.600 269.981  0.00  0.00    -0.359 N 
ATOM      4  HN          1     175.749 184.041 269.234  1.00  0.00     0.166 HD
HETATM    5  C           1     174.165 185.257 269.812  0.00  0.00     0.077 A 
HETATM    6  C           1     173.564 186.026 270.796  0.00  0.00     0.004 A 
HETATM    7  C           1     174.201 186.131 272.029  0.00  0.00     0.025 A 
ENDROOT
BRANCH   6   8
HETATM    8  C           1     172.267 186.726 270.538  0.00  0.00     0.311 C 
BRANCH   8   9
HETATM    9  N           1     172.452 188.146 270.668  0.00  0.00     0.087 N 
HETATM   10  H           1     173.401 188.337 270.991  0.00  0.00     0.316 HD
BRANCH   9  11
HETATM   11  C           1     171.509 188.623 271.643  0.00  0.00     0.270 C 
BRANCH  11  12
HETATM   12  C           1     172.210 189.571 272.606  0.00  0.00     0.034 C 
BRANCH  12  13
HETATM   13  C           1     172.236 188.954 273.999  0.00  0.00    -0.010 C 
HETATM   14  C           1     171.307 187.744 274.028  0.00  0.00     0.035 C 
HETATM   15  C           1     171.443 186.973 275.340  0.00  0.00     0.273 C 
HETATM   16  N           1     172.830 186.579 275.588  0.00  0.00     0.093 N 
HETATM   17  C           1     173.717 187.741 275.638  0.00  0.00     0.273 C 
HETATM   18  C           1     173.665 188.540 274.338  0.00  0.00     0.035 C 
BRANCH  16  19
HETATM   19  C           1     172.841 185.963 276.889  0.00  0.00     0.223 C 
HETATM   20  C           1     173.858 186.634 277.799  0.00  0.00     0.036 C 
HETATM   21  C           1     173.311 186.467 279.216  0.00  0.00     0.002 C 
HETATM   22  C           1     171.881 185.952 279.066  0.00  0.00     0.002 C 
HETATM   23  C           1     171.522 186.191 277.607  0.00  0.00     0.036 C 
ENDBRANCH  16  19
ENDBRANCH  12  13
ENDBRANCH  11  12
ENDBRANCH   9  11
ENDBRANCH   8   9
ENDBRANCH   6   8
BRANCH   5  24
HETATM   24  S           1     173.334 185.121 268.204  0.00  0.00    -0.107 SA
BRANCH  24  25
HETATM   25  C           1     174.491 186.241 267.368  0.00  0.00     0.119 C 
BRANCH  25  26
HETATM   26  C           1     173.975 187.644 267.447  0.00  0.00    -0.049 A 
HETATM   27  C           1     172.682 187.937 267.015  0.00  0.00     0.008 A 
HETATM   28  C           1     172.202 189.245 267.089  0.00  0.00     0.001 A 
HETATM   29  C           1     173.016 190.259 267.595  0.00  0.00     0.000 A 
HETATM   30  C           1     174.309 189.966 268.026  0.00  0.00     0.001 A 
HETATM   31  C           1     174.790 188.658 267.952  0.00  0.00     0.008 A 
ENDBRANCH  25  26
ENDBRANCH  24  25
ENDBRANCH   5  24
BRANCH   1  32
HETATM   32  C           1     176.043 185.547 273.405  0.00  0.00    -0.025 A 
HETATM   33  C           1     177.181 186.345 273.527  0.00  0.00     0.013 A 
HETATM   34  C           1     177.846 186.428 274.750  0.00  0.00     0.007 A 
HETATM   35  C           1     177.375 185.714 275.851  0.00  0.00    -0.062 A 
HETATM   36  C           1     178.088 185.804 277.163  0.00  0.00     0.048 C 
HETATM   37  C           1     176.236 184.916 275.729  0.00  0.00     0.007 A 
HETATM   38  C           1     175.571 184.832 274.506  0.00  0.00     0.013 A 
ENDBRANCH   1  32
TORSDOF 10
ENDMDL
MODEL 4
REMARK VINA RESULT:      -9.0      3.827     10.858
REMARK  10 active torsions:
REMARK  status: ('A' for Active; 'I' for Inactive)
REMARK    1  A    between atoms: C_1  and  C_19 
REMARK    2  A    between atoms: C_5  and  S_30 
REMARK    3  A    between atoms: C_6  and  C_8 
REMARK    4  A    between atoms: C_8  and  N_9 
REMARK    5  A    between atoms: N_9  and  C_10 
REMARK    6  A    between atoms: C_10  and  C_11 
REMARK    7  A    between atoms: C_11  and  C_12 
REMARK    8  A    between atoms: N_15  and  C_18 
REMARK    9  A    between atoms: S_30  and  C_37 
REMARK   10  A    between atoms: C_31  and  C_37 
ROOT
HETATM    1  C           1     174.572 186.155 276.517  0.00  0.00    -0.010 A 
HETATM    2  C           1     175.413 186.812 277.401  0.00  0.00     0.101 A 
HETATM    3  N           1     175.069 187.137 278.666  0.00  0.00    -0.359 N 
ATOM      4  HN          1     175.715 187.621 279.289  1.00  0.00     0.166 HD
HETATM    5  C           1     173.825 186.787 279.064  0.00  0.00     0.077 A 
HETATM    6  C           1     172.913 186.129 278.254  0.00  0.00     0.004 A 
HETATM    7  C           1     173.298 185.809 276.956  0.00  0.00     0.025 A 
ENDROOT
BRANCH   6   8
HETATM    8  C           1     171.551 185.773 278.762  0.00  0.00     0.311 C 
BRANCH   8   9
HETATM    9  N           1     170.637 185.674 277.657  0.00  0.00     0.087 N 
HETATM   10  H           1     171.154 185.454 276.806  0.00  0.00     0.316 HD
BRANCH   9  11
HETATM   11  C           1     169.989 186.949 277.508  0.00  0.00     0.270 C 
BRANCH  11  12
HETATM   12  C           1     169.500 187.107 276.076  0.00  0.00     0.034 C 
BRANCH  12  13
HETATM   13  C           1     170.693 187.309 275.151  0.00  0.00    -0.010 C 
HETATM   14  C           1     170.210 187.312 273.703  0.00  0.00     0.035 C 
HETATM   15  C           1     171.334 187.704 272.745  0.00  0.00     0.273 C 
HETATM   16  N           1     171.920 188.994 273.107  0.00  0.00     0.093 N 
HETATM   17  C           1     172.456 188.977 274.469  0.00  0.00     0.273 C 
HETATM   18  C           1     171.374 188.631 275.490  0.00  0.00     0.035 C 
BRANCH  16  19
HETATM   19  C           1     173.024 189.196 272.206  0.00  0.00     0.223 C 
HETATM   20  C           1     174.349 189.156 272.951  0.00  0.00     0.036 C 
HETATM   21  C           1     175.372 188.645 271.938  0.00  0.00     0.002 C 
HETATM   22  C           1     174.574 188.152 270.733  0.00  0.00     0.002 C 
HETATM   23  C           1     173.138 188.043 271.223  0.00  0.00     0.036 C 
ENDBRANCH  16  19
ENDBRANCH  12  13
ENDBRANCH  11  12
ENDBRANCH   9  11
ENDBRANCH   8   9
ENDBRANCH   6   8
BRANCH   5  24
HETATM   24  S           1     173.321 187.204 280.757  0.00  0.00    -0.107 SA
BRANCH  24  25
HETATM   25  C           1     174.676 186.275 281.526  0.00  0.00     0.119 C 
BRANCH  25  26
HETATM   26  C           1     174.270 185.844 282.901  0.00  0.00    -0.049 A 
HETATM   27  C           1     175.237 185.436 283.819  0.00  0.00     0.008 A 
HETATM   28  C           1     174.858 185.034 285.099  0.00  0.00     0.001 A 
HETATM   29  C           1     173.511 185.040 285.462  0.00  0.00     0.000 A 
HETATM   30  C           1     172.543 185.448 284.545  0.00  0.00     0.001 A 
HETATM   31  C           1     172.922 185.850 283.263  0.00  0.00     0.008 A 
ENDBRANCH  25  26
ENDBRANCH  24  25
ENDBRANCH   5  24
BRANCH   1  32
HETATM   32  C           1     174.974 185.862 275.277  0.00  0.00    -0.025 A 
HETATM   33  C           1     176.306 186.061 274.910  0.00  0.00     0.013 A 
HETATM   34  C           1     176.725 185.755 273.616  0.00  0.00     0.007 A 
HETATM   35  C           1     175.814 185.252 272.688  0.00  0.00    -0.062 A 
HETATM   36  C           1     176.265 184.923 271.299  0.00  0.00     0.048 C 
HETATM   37  C           1     174.483 185.052 273.054  0.00  0.00     0.007 A 
HETATM   38  C           1     174.063 185.358 274.348  0.00  0.00     0.013 A 
ENDBRANCH   1  32
TORSDOF 10
ENDMDL
MODEL 5
REMARK VINA RESULT:      -8.7      8.463     12.424
REMARK  10 active torsions:
REMARK  status: ('A' for Active; 'I' for Inactive)
REMARK    1  A    between atoms: C_1  and  C_19 
REMARK    2  A    between atoms: C_5  and  S_30 
REMARK    3  A    between atoms: C_6  and  C_8 
REMARK    4  A    between atoms: C_8  and  N_9 
REMARK    5  A    between atoms: N_9  and  C_10 
REMARK    6  A    between atoms: C_10  and  C_11 
REMARK    7  A    between atoms: C_11  and  C_12 
REMARK    8  A    between atoms: N_15  and  C_18 
REMARK    9  A    between atoms: S_30  and  C_37 
REMARK   10  A    between atoms: C_31  and  C_37 
ROOT
HETATM    1  C           1     175.497 185.483 272.254  0.00  0.00    -0.010 A 
HETATM    2  C           1     176.238 185.128 271.138  0.00  0.00     0.101 A 
HETATM    3  N           1     175.715 184.992 269.901  0.00  0.00    -0.359 N 
ATOM      4  HN          1     176.292 184.728 269.102  1.00  0.00     0.166 HD
HETATM    5  C           1     174.390 185.224 269.775  0.00  0.00     0.077 A 
HETATM    6  C           1     173.566 185.583 270.830  0.00  0.00     0.004 A 
HETATM    7  C           1     174.135 185.714 272.093  0.00  0.00     0.025 A 
ENDROOT
BRANCH   6   8
HETATM    8  C           1     172.105 185.824 270.616  0.00  0.00     0.311 C 
BRANCH   8   9
HETATM    9  N           1     171.548 186.463 271.778  0.00  0.00     0.087 N 
HETATM   10  H           1     171.080 185.767 272.358  0.00  0.00     0.316 HD
BRANCH   9  11
HETATM   11  C           1     170.588 187.434 271.326  0.00  0.00     0.270 C 
BRANCH  11  12
HETATM   12  C           1     171.314 188.592 270.654  0.00  0.00     0.034 C 
BRANCH  12  13
HETATM   13  C           1     171.739 189.605 271.708  0.00  0.00    -0.010 C 
HETATM   14  C           1     173.256 189.764 271.668  0.00  0.00     0.035 C 
HETATM   15  C           1     173.718 190.908 272.569  0.00  0.00     0.273 C 
HETATM   16  N           1     173.048 192.163 272.226  0.00  0.00     0.093 N 
HETATM   17  C           1     171.594 192.042 272.336  0.00  0.00     0.273 C 
HETATM   18  C           1     171.054 190.940 271.428  0.00  0.00     0.035 C 
BRANCH  16  19
HETATM   19  C           1     173.482 193.125 273.204  0.00  0.00     0.223 C 
HETATM   20  C           1     173.635 192.479 274.572  0.00  0.00     0.036 C 
HETATM   21  C           1     174.725 193.280 275.282  0.00  0.00     0.002 C 
HETATM   22  C           1     175.354 194.183 274.224  0.00  0.00     0.002 C 
HETATM   23  C           1     174.883 193.621 272.891  0.00  0.00     0.036 C 
ENDBRANCH  16  19
ENDBRANCH  12  13
ENDBRANCH  11  12
ENDBRANCH   9  11
ENDBRANCH   8   9
ENDBRANCH   6   8
BRANCH   5  24
HETATM   24  S           1     173.645 185.053 268.128  0.00  0.00    -0.107 SA
BRANCH  24  25
HETATM   25  C           1     174.709 186.315 267.376  0.00  0.00     0.119 C 
BRANCH  25  26
HETATM   26  C           1     174.028 187.647 267.442  0.00  0.00    -0.049 A 
HETATM   27  C           1     174.694 188.744 267.988  0.00  0.00     0.008 A 
HETATM   28  C           1     174.059 189.985 268.050  0.00  0.00     0.001 A 
HETATM   29  C           1     172.759 190.128 267.564  0.00  0.00     0.000 A 
HETATM   30  C           1     172.094 189.031 267.018  0.00  0.00     0.001 A 
HETATM   31  C           1     172.727 187.790 266.957  0.00  0.00     0.008 A 
ENDBRANCH  25  26
ENDBRANCH  24  25
ENDBRANCH   5  24
BRANCH   1  32
HETATM   32  C           1     176.076 185.600 273.453  0.00  0.00    -0.025 A 
HETATM   33  C           1     177.284 186.287 273.581  0.00  0.00     0.013 A 
HETATM   34  C           1     177.888 186.409 274.831  0.00  0.00     0.007 A 
HETATM   35  C           1     177.285 185.846 275.955  0.00  0.00    -0.062 A 
HETATM   36  C           1     177.932 185.978 277.298  0.00  0.00     0.048 C 
HETATM   37  C           1     176.076 185.160 275.829  0.00  0.00     0.007 A 
HETATM   38  C           1     175.472 185.037 274.578  0.00  0.00     0.013 A 
ENDBRANCH   1  32
TORSDOF 10
ENDMDL
MODEL 6
REMARK VINA RESULT:      -8.5      2.211      3.421
REMARK  10 active torsions:
REMARK  status: ('A' for Active; 'I' for Inactive)
REMARK    1  A    between atoms: C_1  and  C_19 
REMARK    2  A    between atoms: C_5  and  S_30 
REMARK    3  A    between atoms: C_6  and  C_8 
REMARK    4  A    between atoms: C_8  and  N_9 
REMARK    5  A    between atoms: N_9  and  C_10 
REMARK    6  A    between atoms: C_10  and  C_11 
REMARK    7  A    between atoms: C_11  and  C_12 
REMARK    8  A    between atoms: N_15  and  C_18 
REMARK    9  A    between atoms: S_30  and  C_37 
REMARK   10  A    between atoms: C_31  and  C_37 
ROOT
HETATM    1  C           1     171.793 188.387 283.944  0.00  0.00    -0.010 A 
HETATM    2  C           1     171.535 188.761 282.635  0.00  0.00     0.101 A 
HETATM    3  N           1     172.378 188.526 281.606  0.00  0.00    -0.359 N 
ATOM      4  HN          1     172.155 188.817 280.654  1.00  0.00     0.166 HD
HETATM    5  C           1     173.531 187.886 281.902  0.00  0.00     0.077 A 
HETATM    6  C           1     173.877 187.473 283.179  0.00  0.00     0.004 A 
HETATM    7  C           1     172.988 187.730 284.217  0.00  0.00     0.025 A 
ENDROOT
BRANCH   6   8
HETATM    8  C           1     175.173 186.769 283.433  0.00  0.00     0.311 C 
BRANCH   8   9
HETATM    9  N           1     174.928 185.364 283.619  0.00  0.00     0.087 N 
HETATM   10  H           1     173.936 185.170 283.482  0.00  0.00     0.316 HD
BRANCH   9  11
HETATM   11  C           1     175.300 185.029 284.967  0.00  0.00     0.270 C 
BRANCH  11  12
HETATM   12  C           1     174.083 184.505 285.715  0.00  0.00     0.034 C 
BRANCH  12  13
HETATM   13  C           1     173.765 185.434 286.880  0.00  0.00    -0.010 C 
HETATM   14  C           1     172.449 185.001 287.521  0.00  0.00     0.035 C 
HETATM   15  C           1     172.181 185.774 288.811  0.00  0.00     0.273 C 
HETATM   16  N           1     173.293 185.647 289.753  0.00  0.00     0.093 N 
HETATM   17  C           1     174.545 186.131 289.173  0.00  0.00     0.273 C 
HETATM   18  C           1     174.901 185.372 287.896  0.00  0.00     0.035 C 
BRANCH  16  19
HETATM   19  C           1     172.969 186.497 290.867  0.00  0.00     0.223 C 
HETATM   20  C           1     172.054 187.633 290.437  0.00  0.00     0.036 C 
HETATM   21  C           1     171.223 187.979 291.671  0.00  0.00     0.002 C 
HETATM   22  C           1     171.484 186.870 292.689  0.00  0.00     0.002 C 
HETATM   23  C           1     172.140 185.750 291.897  0.00  0.00     0.036 C 
ENDBRANCH  16  19
ENDBRANCH  12  13
ENDBRANCH  11  12
ENDBRANCH   9  11
ENDBRANCH   8   9
ENDBRANCH   6   8
BRANCH   5  24
HETATM   24  S           1     174.693 187.549 280.549  0.00  0.00    -0.107 SA
BRANCH  24  25
HETATM   25  C           1     173.415 186.881 279.448  0.00  0.00     0.119 C 
BRANCH  25  26
HETATM   26  C           1     174.034 186.494 278.140  0.00  0.00    -0.049 A 
HETATM   27  C           1     173.287 185.791 277.196  0.00  0.00     0.008 A 
HETATM   28  C           1     173.865 185.431 275.978  0.00  0.00     0.001 A 
HETATM   29  C           1     175.189 185.775 275.705  0.00  0.00     0.000 A 
HETATM   30  C           1     175.935 186.479 276.649  0.00  0.00     0.001 A 
HETATM   31  C           1     175.359 186.839 277.868  0.00  0.00     0.008 A 
ENDBRANCH  25  26
ENDBRANCH  24  25
ENDBRANCH   5  24
BRANCH   1  32
HETATM   32  C           1     170.916 188.650 284.918  0.00  0.00    -0.025 A 
HETATM   33  C           1     171.071 188.060 286.174  0.00  0.00     0.013 A 
HETATM   34  C           1     170.156 188.334 287.190  0.00  0.00     0.007 A 
HETATM   35  C           1     169.087 189.196 286.952  0.00  0.00    -0.062 A 
HETATM   36  C           1     168.106 189.491 288.043  0.00  0.00     0.048 C 
HETATM   37  C           1     168.932 189.787 285.698  0.00  0.00     0.007 A 
HETATM   38  C           1     169.846 189.513 284.681  0.00  0.00     0.013 A 
ENDBRANCH   1  32
TORSDOF 10
ENDMDL
MODEL 7
REMARK VINA RESULT:      -8.5      9.258     16.323
REMARK  10 active torsions:
REMARK  status: ('A' for Active; 'I' for Inactive)
REMARK    1  A    between atoms: C_1  and  C_19 
REMARK    2  A    between atoms: C_5  and  S_30 
REMARK    3  A    between atoms: C_6  and  C_8 
REMARK    4  A    between atoms: C_8  and  N_9 
REMARK    5  A    between atoms: N_9  and  C_10 
REMARK    6  A    between atoms: C_10  and  C_11 
REMARK    7  A    between atoms: C_11  and  C_12 
REMARK    8  A    between atoms: N_15  and  C_18 
REMARK    9  A    between atoms: S_30  and  C_37 
REMARK   10  A    between atoms: C_31  and  C_37 
ROOT
HETATM    1  C           1     175.432 185.541 272.327  0.00  0.00    -0.010 A 
HETATM    2  C           1     174.480 186.487 271.985  0.00  0.00     0.101 A 
HETATM    3  N           1     173.785 186.470 270.827  0.00  0.00    -0.359 N 
ATOM      4  HN          1     173.091 187.185 270.608  1.00  0.00     0.166 HD
HETATM    5  C           1     174.055 185.457 269.973  0.00  0.00     0.077 A 
HETATM    6  C           1     174.989 184.465 270.226  0.00  0.00     0.004 A 
HETATM    7  C           1     175.688 184.511 271.428  0.00  0.00     0.025 A 
ENDROOT
BRANCH   6   8
HETATM    8  C           1     175.237 183.373 269.234  0.00  0.00     0.311 C 
BRANCH   8   9
HETATM    9  N           1     176.450 183.646 268.512  0.00  0.00     0.087 N 
HETATM   10  H           1     176.543 184.652 268.371  0.00  0.00     0.316 HD
BRANCH   9  11
HETATM   11  C           1     176.357 182.990 267.235  0.00  0.00     0.270 C 
BRANCH  11  12
HETATM   12  C           1     176.819 183.941 266.140  0.00  0.00     0.034 C 
BRANCH  12  13
HETATM   13  C           1     175.612 184.438 265.356  0.00  0.00    -0.010 C 
HETATM   14  C           1     176.014 184.651 263.899  0.00  0.00     0.035 C 
HETATM   15  C           1     174.797 184.961 263.028  0.00  0.00     0.273 C 
HETATM   16  N           1     173.775 183.921 263.146  0.00  0.00     0.093 N 
HETATM   17  C           1     173.328 183.763 264.530  0.00  0.00     0.273 C 
HETATM   18  C           1     174.490 183.409 265.456  0.00  0.00     0.035 C 
BRANCH  16  19
HETATM   19  C           1     172.652 184.379 262.373  0.00  0.00     0.223 C 
HETATM   20  C           1     171.559 184.931 263.275  0.00  0.00     0.036 C 
HETATM   21  C           1     170.838 185.990 262.443  0.00  0.00     0.002 C 
HETATM   22  C           1     171.692 186.211 261.196  0.00  0.00     0.002 C 
HETATM   23  C           1     173.035 185.572 261.515  0.00  0.00     0.036 C 
ENDBRANCH  16  19
ENDBRANCH  12  13
ENDBRANCH  11  12
ENDBRANCH   9  11
ENDBRANCH   8   9
ENDBRANCH   6   8
BRANCH   5  24
HETATM   24  S           1     173.144 185.395 268.405  0.00  0.00    -0.107 SA
BRANCH  24  25
HETATM   25  C           1     174.247 186.569 267.570  0.00  0.00     0.119 C 
BRANCH  25  26
HETATM   26  C           1     173.582 187.907 267.486  0.00  0.00    -0.049 A 
HETATM   27  C           1     174.220 189.037 267.994  0.00  0.00     0.008 A 
HETATM   28  C           1     173.600 190.284 267.916  0.00  0.00     0.001 A 
HETATM   29  C           1     172.340 190.400 267.327  0.00  0.00     0.000 A 
HETATM   30  C           1     171.701 189.270 266.818  0.00  0.00     0.001 A 
HETATM   31  C           1     172.321 188.023 266.897  0.00  0.00     0.008 A 
ENDBRANCH  25  26
ENDBRANCH  24  25
ENDBRANCH   5  24
BRANCH   1  32
HETATM   32  C           1     176.086 185.615 273.490  0.00  0.00    -0.025 A 
HETATM   33  C           1     177.297 186.304 273.567  0.00  0.00     0.013 A 
HETATM   34  C           1     177.979 186.381 274.781  0.00  0.00     0.007 A 
HETATM   35  C           1     177.452 185.770 275.918  0.00  0.00    -0.062 A 
HETATM   36  C           1     178.184 185.854 277.220  0.00  0.00     0.048 C 
HETATM   37  C           1     176.241 185.082 275.842  0.00  0.00     0.007 A 
HETATM   38  C           1     175.558 185.004 274.628  0.00  0.00     0.013 A 
ENDBRANCH   1  32
TORSDOF 10
ENDMDL
MODEL 8
REMARK VINA RESULT:      -8.4      9.448     16.683
REMARK  10 active torsions:
REMARK  status: ('A' for Active; 'I' for Inactive)
REMARK    1  A    between atoms: C_1  and  C_19 
REMARK    2  A    between atoms: C_5  and  S_30 
REMARK    3  A    between atoms: C_6  and  C_8 
REMARK    4  A    between atoms: C_8  and  N_9 
REMARK    5  A    between atoms: N_9  and  C_10 
REMARK    6  A    between atoms: C_10  and  C_11 
REMARK    7  A    between atoms: C_11  and  C_12 
REMARK    8  A    between atoms: N_15  and  C_18 
REMARK    9  A    between atoms: S_30  and  C_37 
REMARK   10  A    between atoms: C_31  and  C_37 
ROOT
HETATM    1  C           1     175.335 185.477 272.339  0.00  0.00    -0.010 A 
HETATM    2  C           1     174.604 186.549 271.853  0.00  0.00     0.101 A 
HETATM    3  N           1     173.923 186.527 270.686  0.00  0.00    -0.359 N 
ATOM      4  HN          1     173.396 187.336 270.359  1.00  0.00     0.166 HD
HETATM    5  C           1     173.976 185.378 269.976  0.00  0.00     0.077 A 
HETATM    6  C           1     174.680 184.254 270.379  0.00  0.00     0.004 A 
HETATM    7  C           1     175.371 184.309 271.585  0.00  0.00     0.025 A 
ENDROOT
BRANCH   6   8
HETATM    8  C           1     174.694 183.015 269.539  0.00  0.00     0.311 C 
BRANCH   8   9
HETATM    9  N           1     176.032 182.762 269.079  0.00  0.00     0.087 N 
HETATM   10  H           1     176.648 183.511 269.396  0.00  0.00     0.316 HD
BRANCH   9  11
HETATM   11  C           1     176.004 182.740 267.641  0.00  0.00     0.270 C 
BRANCH  11  12
HETATM   12  C           1     176.612 184.026 267.101  0.00  0.00     0.034 C 
BRANCH  12  13
HETATM   13  C           1     177.229 183.761 265.734  0.00  0.00    -0.010 C 
HETATM   14  C           1     177.452 182.261 265.566  0.00  0.00     0.035 C 
HETATM   15  C           1     177.886 181.921 264.141  0.00  0.00     0.273 C 
HETATM   16  N           1     176.929 182.425 263.156  0.00  0.00     0.093 N 
HETATM   17  C           1     176.768 183.875 263.258  0.00  0.00     0.273 C 
HETATM   18  C           1     176.292 184.287 264.650  0.00  0.00     0.035 C 
BRANCH  16  19
HETATM   19  C           1     177.500 182.139 261.866  0.00  0.00     0.223 C 
HETATM   20  C           1     178.762 182.957 261.636  0.00  0.00     0.036 C 
HETATM   21  C           1     179.631 182.114 260.705  0.00  0.00     0.002 C 
HETATM   22  C           1     178.979 180.735 260.639  0.00  0.00     0.002 C 
HETATM   23  C           1     177.994 180.704 261.798  0.00  0.00     0.036 C 
ENDBRANCH  16  19
ENDBRANCH  12  13
ENDBRANCH  11  12
ENDBRANCH   9  11
ENDBRANCH   8   9
ENDBRANCH   6   8
BRANCH   5  24
HETATM   24  S           1     173.075 185.305 268.402  0.00  0.00    -0.107 SA
BRANCH  24  25
HETATM   25  C           1     174.158 186.505 267.579  0.00  0.00     0.119 C 
BRANCH  25  26
HETATM   26  C           1     173.447 187.816 267.451  0.00  0.00    -0.049 A 
HETATM   27  C           1     172.219 187.883 266.794  0.00  0.00     0.008 A 
HETATM   28  C           1     171.557 189.105 266.676  0.00  0.00     0.001 A 
HETATM   29  C           1     172.122 190.260 267.215  0.00  0.00     0.000 A 
HETATM   30  C           1     173.350 190.194 267.872  0.00  0.00     0.001 A 
HETATM   31  C           1     174.014 188.972 267.991  0.00  0.00     0.008 A 
ENDBRANCH  25  26
ENDBRANCH  24  25
ENDBRANCH   5  24
BRANCH   1  32
HETATM   32  C           1     175.988 185.563 273.502  0.00  0.00    -0.025 A 
HETATM   33  C           1     175.443 184.990 274.652  0.00  0.00     0.013 A 
HETATM   34  C           1     176.123 185.080 275.865  0.00  0.00     0.007 A 
HETATM   35  C           1     177.349 185.742 275.931  0.00  0.00    -0.062 A 
HETATM   36  C           1     178.080 185.837 277.233  0.00  0.00     0.048 C 
HETATM   37  C           1     177.896 186.313 274.781  0.00  0.00     0.007 A 
HETATM   38  C           1     177.215 186.224 273.567  0.00  0.00     0.013 A 
ENDBRANCH   1  32
TORSDOF 10
ENDMDL
MODEL 9
REMARK VINA RESULT:      -8.4      3.477      9.139
REMARK  10 active torsions:
REMARK  status: ('A' for Active; 'I' for Inactive)
REMARK    1  A    between atoms: C_1  and  C_19 
REMARK    2  A    between atoms: C_5  and  S_30 
REMARK    3  A    between atoms: C_6  and  C_8 
REMARK    4  A    between atoms: C_8  and  N_9 
REMARK    5  A    between atoms: N_9  and  C_10 
REMARK    6  A    between atoms: C_10  and  C_11 
REMARK    7  A    between atoms: C_11  and  C_12 
REMARK    8  A    between atoms: N_15  and  C_18 
REMARK    9  A    between atoms: S_30  and  C_37 
REMARK   10  A    between atoms: C_31  and  C_37 
ROOT
HETATM    1  C           1     173.879 186.100 281.413  0.00  0.00    -0.010 A 
HETATM    2  C           1     174.954 186.831 280.935  0.00  0.00     0.101 A 
HETATM    3  N           1     175.121 187.161 279.636  0.00  0.00    -0.359 N 
ATOM      4  HN          1     175.927 187.700 279.320  1.00  0.00     0.166 HD
HETATM    5  C           1     174.166 186.741 278.777  0.00  0.00     0.077 A 
HETATM    6  C           1     173.055 186.006 279.159  0.00  0.00     0.004 A 
HETATM    7  C           1     172.912 185.682 280.504  0.00  0.00     0.025 A 
ENDROOT
BRANCH   6   8
HETATM    8  C           1     172.036 185.574 278.151  0.00  0.00     0.311 C 
BRANCH   8   9
HETATM    9  N           1     170.761 186.151 278.479  0.00  0.00     0.087 N 
HETATM   10  H           1     170.020 185.485 278.260  0.00  0.00     0.316 HD
BRANCH   9  11
HETATM   11  C           1     170.596 187.334 277.678  0.00  0.00     0.270 C 
BRANCH  11  12
HETATM   12  C           1     169.987 186.957 276.335  0.00  0.00     0.034 C 
BRANCH  12  13
HETATM   13  C           1     170.617 187.804 275.236  0.00  0.00    -0.010 C 
HETATM   14  C           1     171.247 189.046 275.859  0.00  0.00     0.035 C 
HETATM   15  C           1     172.059 189.830 274.831  0.00  0.00     0.273 C 
HETATM   16  N           1     173.073 188.989 274.194  0.00  0.00     0.093 N 
HETATM   17  C           1     172.470 187.835 273.527  0.00  0.00     0.273 C 
HETATM   18  C           1     171.672 186.977 274.508  0.00  0.00     0.035 C 
BRANCH  16  19
HETATM   19  C           1     173.689 189.806 273.183  0.00  0.00     0.223 C 
HETATM   20  C           1     174.657 188.990 272.339  0.00  0.00     0.036 C 
HETATM   21  C           1     174.662 189.657 270.965  0.00  0.00     0.002 C 
HETATM   22  C           1     173.511 190.660 270.969  0.00  0.00     0.002 C 
HETATM   23  C           1     172.661 190.286 272.173  0.00  0.00     0.036 C 
ENDBRANCH  16  19
ENDBRANCH  12  13
ENDBRANCH  11  12
ENDBRANCH   9  11
ENDBRANCH   8   9
ENDBRANCH   6   8
BRANCH   5  24
HETATM   24  S           1     174.351 187.163 277.021  0.00  0.00    -0.107 SA
BRANCH  24  25
HETATM   25  C           1     175.213 185.621 276.609  0.00  0.00     0.119 C 
BRANCH  25  26
HETATM   26  C           1     175.594 185.632 275.162  0.00  0.00    -0.049 A 
HETATM   27  C           1     176.751 186.292 274.750  0.00  0.00     0.008 A 
HETATM   28  C           1     177.105 186.302 273.400  0.00  0.00     0.001 A 
HETATM   29  C           1     176.302 185.650 272.463  0.00  0.00     0.000 A 
HETATM   30  C           1     175.145 184.990 272.876  0.00  0.00     0.001 A 
HETATM   31  C           1     174.790 184.980 274.225  0.00  0.00     0.008 A 
ENDBRANCH  25  26
ENDBRANCH  24  25
ENDBRANCH   5  24
BRANCH   1  32
HETATM   32  C           1     173.772 185.806 282.712  0.00  0.00    -0.025 A 
HETATM   33  C           1     174.787 185.092 283.351  0.00  0.00     0.013 A 
HETATM   34  C           1     174.675 184.785 284.707  0.00  0.00     0.007 A 
HETATM   35  C           1     173.550 185.190 285.424  0.00  0.00    -0.062 A 
HETATM   36  C           1     173.432 184.861 286.879  0.00  0.00     0.048 C 
HETATM   37  C           1     172.536 185.904 284.786  0.00  0.00     0.007 A 
HETATM   38  C           1     172.647 186.211 283.430  0.00  0.00     0.013 A 
ENDBRANCH   1  32
TORSDOF 10
ENDMDL
