REMARK  9 active torsions:
REMARK  status: ('A' for Active; 'I' for Inactive)
REMARK    1  A    between atoms: C5_7  and  S1_8 
REMARK    2  A    between atoms: S1_8  and  C6_9 
REMARK    3  A    between atoms: C6_9  and  C7_10 
REMARK    4  A    between atoms: C13_16  and  C14_17 
REMARK    5  A    between atoms: C14_17  and  N2_18 
REMARK    6  A    between atoms: N2_18  and  C15_19 
REMARK    7  A    between atoms: C15_19  and  C16_20 
REMARK    8  A    between atoms: C19_23  and  C20_24 
REMARK    9  A    between atoms: C20_24  and  N3_25 
ROOT
HETATM    1 BR1  UNL     1      -6.106  -2.165   6.075  1.00  0.00    -0.051 Br
HETATM    2  C1  UNL     1      -4.525  -2.242   5.005  1.00  0.00     0.011 A 
HETATM    3  C2  UNL     1      -3.271  -2.333   5.620  1.00  0.00     0.021 A 
HETATM    4  C3  UNL     1      -2.111  -2.397   4.845  1.00  0.00     0.034 A 
HETATM    5  C4  UNL     1      -2.200  -2.373   3.449  1.00  0.00     0.068 A 
HETATM    6  N1  UNL     1      -1.074  -2.446   2.694  1.00  0.00    -0.241 NA
HETATM    7  C5  UNL     1      -1.106  -2.416   1.335  1.00  0.00     0.102 A 
HETATM    8  C13 UNL     1      -2.346  -2.323   0.659  1.00  0.00     0.006 A 
HETATM    9  C27 UNL     1      -3.522  -2.258   1.425  1.00  0.00     0.025 A 
HETATM   10  C28 UNL     1      -3.459  -2.279   2.824  1.00  0.00    -0.005 A 
HETATM   11  C29 UNL     1      -4.622  -2.214   3.608  1.00  0.00     0.032 A 
ENDROOT
BRANCH   8  12
HETATM   12  C14 UNL     1      -2.436  -2.228  -0.846  1.00  0.00     0.311 C 
BRANCH  12  13
HETATM   13  N2  UNL     1      -1.833  -3.410  -1.477  1.00  0.00     0.091 N 
HETATM   14  H12 UNL     1      -2.459  -4.227  -1.282  1.00  0.00     0.316 HD
BRANCH  13  15
HETATM   15  C15 UNL     1      -1.752  -3.254  -2.938  1.00  0.00     0.308 C 
BRANCH  15  16
HETATM   16  C16 UNL     1      -0.687  -2.254  -3.315  1.00  0.00    -0.030 A 
HETATM   17  C17 UNL     1       0.655  -2.496  -2.987  1.00  0.00     0.009 A 
HETATM   18  C18 UNL     1       1.636  -1.543  -3.276  1.00  0.00     0.009 A 
HETATM   19  C19 UNL     1       1.290  -0.341  -3.914  1.00  0.00    -0.030 A 
HETATM   20  C25 UNL     1      -0.050  -0.111  -4.268  1.00  0.00     0.009 A 
HETATM   21  C26 UNL     1      -1.032  -1.059  -3.968  1.00  0.00     0.009 A 
BRANCH  19  22
HETATM   22  C20 UNL     1       2.341   0.697  -4.218  1.00  0.00     0.311 C 
BRANCH  22  23
HETATM   23  N3  UNL     1       2.056   1.958  -3.505  1.00  0.00     0.092 N 
HETATM   24  C21 UNL     1       2.200   1.827  -2.052  1.00  0.00     0.273 C 
HETATM   25  C22 UNL     1       2.533   3.210  -1.522  1.00  0.00     0.032 C 
HETATM   26  C23 UNL     1       3.126   3.958  -2.705  1.00  0.00     0.032 C 
HETATM   27  C24 UNL     1       2.992   3.018  -3.896  1.00  0.00     0.273 C 
ENDBRANCH  22  23
ENDBRANCH  19  22
ENDBRANCH  15  16
ENDBRANCH  13  15
ENDBRANCH  12  13
ENDBRANCH   8  12
BRANCH   7  28
HETATM   28  S1  UNL     1       0.458  -2.541   0.457  1.00  0.00    -0.105 SA
BRANCH  28  29
HETATM   29  C6  UNL     1       0.768  -0.745   0.401  1.00  0.00     0.119 C 
BRANCH  29  30
HETATM   30  C7  UNL     1       1.082  -0.206   1.770  1.00  0.00    -0.049 A 
HETATM   31  C8  UNL     1       0.241   0.743   2.379  1.00  0.00     0.008 A 
HETATM   32  C9  UNL     1       0.548   1.241   3.650  1.00  0.00     0.001 A 
HETATM   33  C10 UNL     1       1.697   0.803   4.316  1.00  0.00     0.000 A 
HETATM   34  C11 UNL     1       2.539  -0.137   3.714  1.00  0.00     0.001 A 
HETATM   35  C12 UNL     1       2.236  -0.639   2.446  1.00  0.00     0.008 A 
ENDBRANCH  29  30
ENDBRANCH  28  29
ENDBRANCH   7  28
TORSDOF 9
