MODEL 1
REMARK VINA RESULT:      -7.8      0.000      0.000
REMARK  11 active torsions:
REMARK  status: ('A' for Active; 'I' for Inactive)
REMARK    1  A    between atoms: C_1  and  C_20 
REMARK    2  A    between atoms: C_5  and  S_27 
REMARK    3  A    between atoms: C_6  and  C_8 
REMARK    4  A    between atoms: C_8  and  N_9 
REMARK    5  A    between atoms: N_9  and  C_10 
REMARK    6  A    between atoms: C_10  and  C_11 
REMARK    7  A    between atoms: C_11  and  C_12 
REMARK    8  A    between atoms: N_15  and  C_18 
REMARK    9  A    between atoms: C_23  and  O_35 
REMARK   10  A    between atoms: S_27  and  C_34 
REMARK   11  A    between atoms: C_28  and  C_34 
ROOT
HETATM    1  C           1     173.705 186.454 280.905  0.00  0.00    -0.010 A 
HETATM    2  C           1     174.744 186.968 280.145  0.00  0.00     0.101 A 
HETATM    3  N           1     174.687 187.125 278.804  0.00  0.00    -0.359 N 
ATOM      4  HN          1     175.472 187.507 278.277  1.00  0.00     0.166 HD
HETATM    5  C           1     173.540 186.750 278.199  0.00  0.00     0.077 A 
HETATM    6  C           1     172.448 186.226 278.873  0.00  0.00     0.004 A 
HETATM    7  C           1     172.535 186.077 280.253  0.00  0.00     0.025 A 
ENDROOT
BRANCH   6   8
HETATM    8  C           1     171.206 185.833 278.135  0.00  0.00     0.307 C 
BRANCH   8   9
HETATM    9  N           1     170.093 186.599 278.627  0.00  0.00     0.087 N 
HETATM   10  H           1     169.308 185.976 278.817  0.00  0.00     0.316 HD
BRANCH   9  11
HETATM   11  C           1     169.723 187.539 277.602  0.00  0.00     0.270 C 
BRANCH  11  12
HETATM   12  C           1     170.259 188.918 277.960  0.00  0.00     0.034 C 
BRANCH  12  13
HETATM   13  C           1     169.987 189.202 279.432  0.00  0.00    -0.010 C 
HETATM   14  C           1     171.293 189.592 280.118  0.00  0.00     0.035 C 
HETATM   15  C           1     171.047 190.076 281.545  0.00  0.00     0.272 C 
HETATM   16  N           1     170.085 191.178 281.579  0.00  0.00     0.088 N 
HETATM   17  C           1     168.802 190.787 280.993  0.00  0.00     0.272 C 
HETATM   18  C           1     168.967 190.330 279.544  0.00  0.00     0.035 C 
BRANCH  16  19
HETATM   19  C           1     169.859 191.465 282.970  0.00  0.00     0.268 C 
HETATM   20  C           1     170.646 192.708 283.367  0.00  0.00     0.037 C 
ENDBRANCH  16  19
ENDBRANCH  12  13
ENDBRANCH  11  12
ENDBRANCH   9  11
ENDBRANCH   8   9
ENDBRANCH   6   8
BRANCH   5  21
HETATM   21  S           1     173.420 186.943 276.399  0.00  0.00    -0.107 SA
BRANCH  21  22
HETATM   22  C           1     174.293 185.392 276.046  0.00  0.00     0.122 C 
BRANCH  22  23
HETATM   23  C           1     175.683 185.695 275.577  0.00  0.00    -0.049 A 
HETATM   24  C           1     175.903 186.080 274.255  0.00  0.00     0.008 A 
HETATM   25  C           1     177.198 186.363 273.818  0.00  0.00     0.001 A 
HETATM   26  C           1     178.271 186.262 274.704  0.00  0.00     0.000 A 
HETATM   27  C           1     178.049 185.878 276.025  0.00  0.00     0.001 A 
HETATM   28  C           1     176.755 185.595 276.463  0.00  0.00     0.008 A 
ENDBRANCH  22  23
ENDBRANCH  21  22
ENDBRANCH   5  21
BRANCH   1  29
HETATM   29  C           1     173.824 186.324 282.231  0.00  0.00    -0.021 A 
HETATM   30  C           1     173.378 187.340 283.074  0.00  0.00     0.057 A 
HETATM   31  C           1     173.501 187.205 284.456  0.00  0.00     0.150 A 
HETATM   32  F           1     173.078 188.166 285.255  0.00  0.00    -0.203 F 
HETATM   33  C           1     174.072 186.051 284.996  0.00  0.00     0.106 A 
HETATM   34  C           1     174.519 185.034 284.153  0.00  0.00     0.041 A 
HETATM   35  C           1     174.395 185.171 282.770  0.00  0.00     0.015 A 
BRANCH  33  36
HETATM   36  O           1     174.192 185.920 286.339  0.00  0.00    -0.353 OA
HETATM   37  C           1     173.669 184.691 286.767  0.00  0.00     0.210 C 
ENDBRANCH  33  36
ENDBRANCH   1  29
TORSDOF 11
ENDMDL
MODEL 2
REMARK VINA RESULT:      -7.8      2.620      6.088
REMARK  11 active torsions:
REMARK  status: ('A' for Active; 'I' for Inactive)
REMARK    1  A    between atoms: C_1  and  C_20 
REMARK    2  A    between atoms: C_5  and  S_27 
REMARK    3  A    between atoms: C_6  and  C_8 
REMARK    4  A    between atoms: C_8  and  N_9 
REMARK    5  A    between atoms: N_9  and  C_10 
REMARK    6  A    between atoms: C_10  and  C_11 
REMARK    7  A    between atoms: C_11  and  C_12 
REMARK    8  A    between atoms: N_15  and  C_18 
REMARK    9  A    between atoms: C_23  and  O_35 
REMARK   10  A    between atoms: S_27  and  C_34 
REMARK   11  A    between atoms: C_28  and  C_34 
ROOT
HETATM    1  C           1     171.699 189.254 280.961  0.00  0.00    -0.010 A 
HETATM    2  C           1     170.932 188.911 279.859  0.00  0.00     0.101 A 
HETATM    3  N           1     171.184 187.842 279.072  0.00  0.00    -0.359 N 
ATOM      4  HN          1     170.597 187.619 278.268  1.00  0.00     0.166 HD
HETATM    5  C           1     172.251 187.084 279.403  0.00  0.00     0.077 A 
HETATM    6  C           1     173.077 187.346 280.486  0.00  0.00     0.004 A 
HETATM    7  C           1     172.792 188.453 281.278  0.00  0.00     0.025 A 
ENDROOT
BRANCH   6   8
HETATM    8  C           1     174.243 186.460 280.794  0.00  0.00     0.307 C 
BRANCH   8   9
HETATM    9  N           1     175.151 187.150 281.671  0.00  0.00     0.087 N 
HETATM   10  H           1     175.766 187.749 281.120  0.00  0.00     0.316 HD
BRANCH   9  11
HETATM   11  C           1     175.935 186.157 282.356  0.00  0.00     0.270 C 
BRANCH  11  12
HETATM   12  C           1     175.012 185.089 282.929  0.00  0.00     0.034 C 
BRANCH  12  13
HETATM   13  C           1     174.462 185.559 284.269  0.00  0.00    -0.010 C 
HETATM   14  C           1     172.938 185.599 284.200  0.00  0.00     0.035 C 
HETATM   15  C           1     172.328 185.874 285.572  0.00  0.00     0.272 C 
HETATM   16  N           1     172.785 184.902 286.567  0.00  0.00     0.088 N 
HETATM   17  C           1     174.242 184.913 286.696  0.00  0.00     0.272 C 
HETATM   18  C           1     174.923 184.602 285.363  0.00  0.00     0.035 C 
BRANCH  16  19
HETATM   19  C           1     172.232 185.330 287.823  0.00  0.00     0.268 C 
HETATM   20  C           1     173.361 185.712 288.772  0.00  0.00     0.037 C 
ENDBRANCH  16  19
ENDBRANCH  12  13
ENDBRANCH  11  12
ENDBRANCH   9  11
ENDBRANCH   8   9
ENDBRANCH   6   8
BRANCH   5  21
HETATM   21  S           1     172.626 185.638 278.373  0.00  0.00    -0.107 SA
BRANCH  21  22
HETATM   22  C           1     173.133 186.630 276.941  0.00  0.00     0.122 C 
BRANCH  22  23
HETATM   23  C           1     174.525 186.253 276.538  0.00  0.00    -0.049 A 
HETATM   24  C           1     175.615 186.742 277.257  0.00  0.00     0.008 A 
HETATM   25  C           1     176.912 186.390 276.882  0.00  0.00     0.001 A 
HETATM   26  C           1     177.118 185.548 275.789  0.00  0.00     0.000 A 
HETATM   27  C           1     176.028 185.058 275.072  0.00  0.00     0.001 A 
HETATM   28  C           1     174.730 185.410 275.446  0.00  0.00     0.008 A 
ENDBRANCH  22  23
ENDBRANCH  21  22
ENDBRANCH   5  21
BRANCH   1  29
HETATM   29  C           1     171.396 190.326 281.701  0.00  0.00    -0.021 A 
HETATM   30  C           1     170.511 190.207 282.770  0.00  0.00     0.057 A 
HETATM   31  C           1     170.195 191.326 283.542  0.00  0.00     0.150 A 
HETATM   32  F           1     169.357 191.214 284.556  0.00  0.00    -0.203 F 
HETATM   33  C           1     170.767 192.563 283.244  0.00  0.00     0.106 A 
HETATM   34  C           1     171.653 192.682 282.173  0.00  0.00     0.041 A 
HETATM   35  C           1     171.967 191.563 281.401  0.00  0.00     0.015 A 
BRANCH  33  36
HETATM   36  O           1     170.461 193.649 283.993  0.00  0.00    -0.353 OA
HETATM   37  C           1     169.314 194.287 283.499  0.00  0.00     0.210 C 
ENDBRANCH  33  36
ENDBRANCH   1  29
TORSDOF 11
ENDMDL
MODEL 3
REMARK VINA RESULT:      -7.7      2.538      4.276
REMARK  11 active torsions:
REMARK  status: ('A' for Active; 'I' for Inactive)
REMARK    1  A    between atoms: C_1  and  C_20 
REMARK    2  A    between atoms: C_5  and  S_27 
REMARK    3  A    between atoms: C_6  and  C_8 
REMARK    4  A    between atoms: C_8  and  N_9 
REMARK    5  A    between atoms: N_9  and  C_10 
REMARK    6  A    between atoms: C_10  and  C_11 
REMARK    7  A    between atoms: C_11  and  C_12 
REMARK    8  A    between atoms: N_15  and  C_18 
REMARK    9  A    between atoms: C_23  and  O_35 
REMARK   10  A    between atoms: S_27  and  C_34 
REMARK   11  A    between atoms: C_28  and  C_34 
ROOT
HETATM    1  C           1     173.677 186.236 281.376  0.00  0.00    -0.010 A 
HETATM    2  C           1     174.785 186.879 280.848  0.00  0.00     0.101 A 
HETATM    3  N           1     174.939 187.152 279.534  0.00  0.00    -0.359 N 
ATOM      4  HN          1     175.769 187.628 279.180  1.00  0.00     0.166 HD
HETATM    5  C           1     173.939 186.763 278.713  0.00  0.00     0.077 A 
HETATM    6  C           1     172.793 186.115 279.147  0.00  0.00     0.004 A 
HETATM    7  C           1     172.663 185.847 280.506  0.00  0.00     0.025 A 
ENDROOT
BRANCH   6   8
HETATM    8  C           1     171.724 185.714 278.179  0.00  0.00     0.307 C 
BRANCH   8   9
HETATM    9  N           1     170.492 186.371 278.527  0.00  0.00     0.087 N 
HETATM   10  H           1     169.714 185.724 278.397  0.00  0.00     0.316 HD
BRANCH   9  11
HETATM   11  C           1     170.333 187.496 277.645  0.00  0.00     0.270 C 
BRANCH  11  12
HETATM   12  C           1     169.816 187.013 276.296  0.00  0.00     0.034 C 
BRANCH  12  13
HETATM   13  C           1     170.434 187.852 275.185  0.00  0.00    -0.010 C 
HETATM   14  C           1     171.176 189.034 275.803  0.00  0.00     0.035 C 
HETATM   15  C           1     171.977 189.797 274.751  0.00  0.00     0.272 C 
HETATM   16  N           1     172.898 188.914 274.033  0.00  0.00     0.088 N 
HETATM   17  C           1     172.185 187.821 273.372  0.00  0.00     0.272 C 
HETATM   18  C           1     171.391 186.984 274.375  0.00  0.00     0.035 C 
BRANCH  16  19
HETATM   19  C           1     173.506 189.721 273.010  0.00  0.00     0.268 C 
HETATM   20  C           1     174.657 188.953 272.374  0.00  0.00     0.037 C 
ENDBRANCH  16  19
ENDBRANCH  12  13
ENDBRANCH  11  12
ENDBRANCH   9  11
ENDBRANCH   8   9
ENDBRANCH   6   8
BRANCH   5  21
HETATM   21  S           1     174.104 187.111 276.940  0.00  0.00    -0.107 SA
BRANCH  21  22
HETATM   22  C           1     175.190 185.690 276.633  0.00  0.00     0.122 C 
BRANCH  22  23
HETATM   23  C           1     175.546 185.637 275.179  0.00  0.00    -0.049 A 
HETATM   24  C           1     174.661 185.065 274.266  0.00  0.00     0.008 A 
HETATM   25  C           1     174.992 185.016 272.910  0.00  0.00     0.001 A 
HETATM   26  C           1     176.207 185.541 272.470  0.00  0.00     0.000 A 
HETATM   27  C           1     177.091 186.114 273.384  0.00  0.00     0.001 A 
HETATM   28  C           1     176.761 186.163 274.739  0.00  0.00     0.008 A 
ENDBRANCH  22  23
ENDBRANCH  21  22
ENDBRANCH   5  21
BRANCH   1  29
HETATM   29  C           1     173.585 185.994 282.688  0.00  0.00    -0.021 A 
HETATM   30  C           1     174.468 185.104 283.297  0.00  0.00     0.057 A 
HETATM   31  C           1     174.372 184.852 284.665  0.00  0.00     0.150 A 
HETATM   32  F           1     175.209 184.010 285.242  0.00  0.00    -0.203 F 
HETATM   33  C           1     173.392 185.491 285.426  0.00  0.00     0.106 A 
HETATM   34  C           1     172.507 186.381 284.816  0.00  0.00     0.041 A 
HETATM   35  C           1     172.604 186.632 283.447  0.00  0.00     0.015 A 
BRANCH  33  36
HETATM   36  O           1     173.299 185.246 286.754  0.00  0.00    -0.353 OA
HETATM   37  C           1     171.968 184.999 287.123  0.00  0.00     0.210 C 
ENDBRANCH  33  36
ENDBRANCH   1  29
TORSDOF 11
ENDMDL
MODEL 4
REMARK VINA RESULT:      -7.7      7.769     10.947
REMARK  11 active torsions:
REMARK  status: ('A' for Active; 'I' for Inactive)
REMARK    1  A    between atoms: C_1  and  C_20 
REMARK    2  A    between atoms: C_5  and  S_27 
REMARK    3  A    between atoms: C_6  and  C_8 
REMARK    4  A    between atoms: C_8  and  N_9 
REMARK    5  A    between atoms: N_9  and  C_10 
REMARK    6  A    between atoms: C_10  and  C_11 
REMARK    7  A    between atoms: C_11  and  C_12 
REMARK    8  A    between atoms: N_15  and  C_18 
REMARK    9  A    between atoms: C_23  and  O_35 
REMARK   10  A    between atoms: S_27  and  C_34 
REMARK   11  A    between atoms: C_28  and  C_34 
ROOT
HETATM    1  C           1     174.346 189.395 269.510  0.00  0.00    -0.010 A 
HETATM    2  C           1     174.787 189.355 268.197  0.00  0.00     0.101 A 
HETATM    3  N           1     174.769 188.243 267.431  0.00  0.00    -0.359 N 
ATOM      4  HN          1     175.102 188.251 266.467  1.00  0.00     0.166 HD
HETATM    5  C           1     174.288 187.119 268.006  0.00  0.00     0.077 A 
HETATM    6  C           1     173.824 187.059 269.312  0.00  0.00     0.004 A 
HETATM    7  C           1     173.855 188.221 270.076  0.00  0.00     0.025 A 
ENDROOT
BRANCH   6   8
HETATM    8  C           1     173.303 185.778 269.883  0.00  0.00     0.307 C 
BRANCH   8   9
HETATM    9  N           1     172.400 186.068 270.964  0.00  0.00     0.087 N 
HETATM   10  H           1     172.479 187.052 271.219  0.00  0.00     0.316 HD
BRANCH   9  11
HETATM   11  C           1     172.784 185.250 272.085  0.00  0.00     0.270 C 
BRANCH  11  12
HETATM   12  C           1     174.093 184.538 271.768  0.00  0.00     0.034 C 
BRANCH  12  13
HETATM   13  C           1     175.094 184.796 272.886  0.00  0.00    -0.010 C 
HETATM   14  C           1     176.075 185.878 272.441  0.00  0.00     0.035 C 
HETATM   15  C           1     176.978 186.314 273.593  0.00  0.00     0.272 C 
HETATM   16  N           1     176.197 186.754 274.750  0.00  0.00     0.088 N 
HETATM   17  C           1     175.309 185.695 275.231  0.00  0.00     0.272 C 
HETATM   18  C           1     174.344 185.236 274.139  0.00  0.00     0.035 C 
BRANCH  16  19
HETATM   19  C           1     177.150 187.031 275.790  0.00  0.00     0.268 C 
HETATM   20  C           1     177.762 185.725 276.280  0.00  0.00     0.037 C 
ENDBRANCH  16  19
ENDBRANCH  12  13
ENDBRANCH  11  12
ENDBRANCH   9  11
ENDBRANCH   8   9
ENDBRANCH   6   8
BRANCH   5  21
HETATM   21  S           1     174.245 185.601 267.014  0.00  0.00    -0.107 SA
BRANCH  21  22
HETATM   22  C           1     175.999 185.223 267.283  0.00  0.00     0.122 C 
BRANCH  22  23
HETATM   23  C           1     176.121 184.049 268.205  0.00  0.00    -0.049 A 
HETATM   24  C           1     176.889 184.152 269.365  0.00  0.00     0.008 A 
HETATM   25  C           1     177.003 183.059 270.225  0.00  0.00     0.001 A 
HETATM   26  C           1     176.349 181.864 269.924  0.00  0.00     0.000 A 
HETATM   27  C           1     175.582 181.762 268.765  0.00  0.00     0.001 A 
HETATM   28  C           1     175.467 182.855 267.905  0.00  0.00     0.008 A 
ENDBRANCH  22  23
ENDBRANCH  21  22
ENDBRANCH   5  21
BRANCH   1  29
HETATM   29  C           1     174.391 190.530 270.215  0.00  0.00    -0.021 A 
HETATM   30  C           1     173.228 191.039 270.791  0.00  0.00     0.057 A 
HETATM   31  C           1     173.274 192.222 271.527  0.00  0.00     0.150 A 
HETATM   32  F           1     172.173 192.705 272.073  0.00  0.00    -0.203 F 
HETATM   33  C           1     174.485 192.897 271.688  0.00  0.00     0.106 A 
HETATM   34  C           1     175.649 192.388 271.112  0.00  0.00     0.041 A 
HETATM   35  C           1     175.601 191.204 270.375  0.00  0.00     0.015 A 
BRANCH  33  36
HETATM   36  O           1     174.530 194.047 272.403  0.00  0.00    -0.353 OA
HETATM   37  C           1     174.913 193.794 273.728  0.00  0.00     0.210 C 
ENDBRANCH  33  36
ENDBRANCH   1  29
TORSDOF 11
ENDMDL
MODEL 5
REMARK VINA RESULT:      -7.7      4.300      8.465
REMARK  11 active torsions:
REMARK  status: ('A' for Active; 'I' for Inactive)
REMARK    1  A    between atoms: C_1  and  C_20 
REMARK    2  A    between atoms: C_5  and  S_27 
REMARK    3  A    between atoms: C_6  and  C_8 
REMARK    4  A    between atoms: C_8  and  N_9 
REMARK    5  A    between atoms: N_9  and  C_10 
REMARK    6  A    between atoms: C_10  and  C_11 
REMARK    7  A    between atoms: C_11  and  C_12 
REMARK    8  A    between atoms: N_15  and  C_18 
REMARK    9  A    between atoms: C_23  and  O_35 
REMARK   10  A    between atoms: S_27  and  C_34 
REMARK   11  A    between atoms: C_28  and  C_34 
ROOT
HETATM    1  C           1     174.491 186.168 276.895  0.00  0.00    -0.010 A 
HETATM    2  C           1     175.323 186.711 277.861  0.00  0.00     0.101 A 
HETATM    3  N           1     174.929 186.980 279.126  0.00  0.00    -0.359 N 
ATOM      4  HN          1     175.570 187.379 279.812  1.00  0.00     0.166 HD
HETATM    5  C           1     173.646 186.693 279.435  0.00  0.00     0.077 A 
HETATM    6  C           1     172.740 186.149 278.537  0.00  0.00     0.004 A 
HETATM    7  C           1     173.174 185.883 277.243  0.00  0.00     0.025 A 
ENDROOT
BRANCH   6   8
HETATM    8  C           1     171.332 185.856 278.951  0.00  0.00     0.307 C 
BRANCH   8   9
HETATM    9  N           1     170.473 185.906 277.798  0.00  0.00     0.087 N 
HETATM   10  H           1     171.040 185.866 276.950  0.00  0.00     0.316 HD
BRANCH   9  11
HETATM   11  C           1     169.759 187.154 277.839  0.00  0.00     0.270 C 
BRANCH  11  12
HETATM   12  C           1     169.338 187.544 276.428  0.00  0.00     0.034 C 
BRANCH  12  13
HETATM   13  C           1     170.515 187.360 275.479  0.00  0.00    -0.010 C 
HETATM   14  C           1     169.987 187.140 274.064  0.00  0.00     0.035 C 
HETATM   15  C           1     171.123 187.145 273.042  0.00  0.00     0.272 C 
HETATM   16  N           1     171.913 188.374 273.125  0.00  0.00     0.088 N 
HETATM   17  C           1     172.487 188.553 274.459  0.00  0.00     0.272 C 
HETATM   18  C           1     171.401 188.600 275.532  0.00  0.00     0.035 C 
BRANCH  16  19
HETATM   19  C           1     173.001 188.209 272.200  0.00  0.00     0.268 C 
HETATM   20  C           1     174.232 188.935 272.727  0.00  0.00     0.037 C 
ENDBRANCH  16  19
ENDBRANCH  12  13
ENDBRANCH  11  12
ENDBRANCH   9  11
ENDBRANCH   8   9
ENDBRANCH   6   8
BRANCH   5  21
HETATM   21  S           1     173.075 187.038 281.122  0.00  0.00    -0.107 SA
BRANCH  21  22
HETATM   22  C           1     174.452 186.154 281.905  0.00  0.00     0.122 C 
BRANCH  22  23
HETATM   23  C           1     174.062 185.751 283.294  0.00  0.00    -0.049 A 
HETATM   24  C           1     172.736 185.870 283.707  0.00  0.00     0.008 A 
HETATM   25  C           1     172.372 185.494 285.001  0.00  0.00     0.001 A 
HETATM   26  C           1     173.335 184.998 285.880  0.00  0.00     0.000 A 
HETATM   27  C           1     174.661 184.878 285.465  0.00  0.00     0.001 A 
HETATM   28  C           1     175.025 185.254 284.172  0.00  0.00     0.008 A 
ENDBRANCH  22  23
ENDBRANCH  21  22
ENDBRANCH   5  21
BRANCH   1  29
HETATM   29  C           1     174.942 185.925 275.659  0.00  0.00    -0.021 A 
HETATM   30  C           1     176.272 186.190 275.338  0.00  0.00     0.057 A 
HETATM   31  C           1     176.743 185.936 274.050  0.00  0.00     0.150 A 
HETATM   32  F           1     178.002 186.186 273.746  0.00  0.00    -0.203 F 
HETATM   33  C           1     175.882 185.417 273.082  0.00  0.00     0.106 A 
HETATM   34  C           1     174.550 185.152 273.403  0.00  0.00     0.041 A 
HETATM   35  C           1     174.081 185.406 274.692  0.00  0.00     0.015 A 
BRANCH  33  36
HETATM   36  O           1     176.339 185.171 271.831  0.00  0.00    -0.353 OA
HETATM   37  C           1     175.358 185.472 270.875  0.00  0.00     0.210 C 
ENDBRANCH  33  36
ENDBRANCH   1  29
TORSDOF 11
ENDMDL
MODEL 6
REMARK VINA RESULT:      -7.6      2.974      8.024
REMARK  11 active torsions:
REMARK  status: ('A' for Active; 'I' for Inactive)
REMARK    1  A    between atoms: C_1  and  C_20 
REMARK    2  A    between atoms: C_5  and  S_27 
REMARK    3  A    between atoms: C_6  and  C_8 
REMARK    4  A    between atoms: C_8  and  N_9 
REMARK    5  A    between atoms: N_9  and  C_10 
REMARK    6  A    between atoms: C_10  and  C_11 
REMARK    7  A    between atoms: C_11  and  C_12 
REMARK    8  A    between atoms: N_15  and  C_18 
REMARK    9  A    between atoms: C_23  and  O_35 
REMARK   10  A    between atoms: S_27  and  C_34 
REMARK   11  A    between atoms: C_28  and  C_34 
ROOT
HETATM    1  C           1     172.555 189.522 282.478  0.00  0.00    -0.010 A 
HETATM    2  C           1     173.421 189.257 283.527  0.00  0.00     0.101 A 
HETATM    3  N           1     174.330 188.257 283.517  0.00  0.00    -0.359 N 
ATOM      4  HN          1     174.953 188.092 284.308  1.00  0.00     0.166 HD
HETATM    5  C           1     174.373 187.489 282.406  0.00  0.00     0.077 A 
HETATM    6  C           1     173.549 187.676 281.307  0.00  0.00     0.004 A 
HETATM    7  C           1     172.623 188.713 281.347  0.00  0.00     0.025 A 
ENDROOT
BRANCH   6   8
HETATM    8  C           1     173.654 186.785 280.109  0.00  0.00     0.307 C 
BRANCH   8   9
HETATM    9  N           1     172.410 186.088 279.920  0.00  0.00     0.087 N 
HETATM   10  H           1     172.211 185.517 280.742  0.00  0.00     0.316 HD
BRANCH   9  11
HETATM   11  C           1     172.557 185.237 278.769  0.00  0.00     0.270 C 
BRANCH  11  12
HETATM   12  C           1     172.669 186.095 277.515  0.00  0.00     0.034 C 
BRANCH  12  13
HETATM   13  C           1     173.937 185.723 276.758  0.00  0.00    -0.010 C 
HETATM   14  C           1     173.617 185.609 275.270  0.00  0.00     0.035 C 
HETATM   15  C           1     174.889 185.431 274.443  0.00  0.00     0.272 C 
HETATM   16  N           1     175.847 186.508 274.694  0.00  0.00     0.088 N 
HETATM   17  C           1     176.219 186.574 276.108  0.00  0.00     0.272 C 
HETATM   18  C           1     174.995 186.795 276.997  0.00  0.00     0.035 C 
BRANCH  16  19
HETATM   19  C           1     177.029 186.170 273.947  0.00  0.00     0.268 C 
HETATM   20  C           1     178.260 186.389 274.817  0.00  0.00     0.037 C 
ENDBRANCH  16  19
ENDBRANCH  12  13
ENDBRANCH  11  12
ENDBRANCH   9  11
ENDBRANCH   8   9
ENDBRANCH   6   8
BRANCH   5  21
HETATM   21  S           1     175.580 186.135 282.349  0.00  0.00    -0.107 SA
BRANCH  21  22
HETATM   22  C           1     174.340 184.847 282.656  0.00  0.00     0.122 C 
BRANCH  22  23
HETATM   23  C           1     173.943 184.868 284.100  0.00  0.00    -0.049 A 
HETATM   24  C           1     172.621 185.132 284.455  0.00  0.00     0.008 A 
HETATM   25  C           1     172.250 185.152 285.801  0.00  0.00     0.001 A 
HETATM   26  C           1     173.203 184.906 286.789  0.00  0.00     0.000 A 
HETATM   27  C           1     174.525 184.641 286.433  0.00  0.00     0.001 A 
HETATM   28  C           1     174.895 184.621 285.088  0.00  0.00     0.008 A 
ENDBRANCH  22  23
ENDBRANCH  21  22
ENDBRANCH   5  21
BRANCH   1  29
HETATM   29  C           1     171.677 190.527 282.551  0.00  0.00    -0.021 A 
HETATM   30  C           1     170.523 190.391 283.321  0.00  0.00     0.057 A 
HETATM   31  C           1     169.607 191.440 283.397  0.00  0.00     0.150 A 
HETATM   32  F           1     168.515 191.311 284.127  0.00  0.00    -0.203 F 
HETATM   33  C           1     169.845 192.626 282.702  0.00  0.00     0.106 A 
HETATM   34  C           1     171.000 192.763 281.931  0.00  0.00     0.041 A 
HETATM   35  C           1     171.915 191.712 281.855  0.00  0.00     0.015 A 
BRANCH  33  36
HETATM   36  O           1     168.955 193.644 282.776  0.00  0.00    -0.353 OA
HETATM   37  C           1     168.764 194.230 281.516  0.00  0.00     0.210 C 
ENDBRANCH  33  36
ENDBRANCH   1  29
TORSDOF 11
ENDMDL
MODEL 7
REMARK VINA RESULT:      -7.6      6.911     10.507
REMARK  11 active torsions:
REMARK  status: ('A' for Active; 'I' for Inactive)
REMARK    1  A    between atoms: C_1  and  C_20 
REMARK    2  A    between atoms: C_5  and  S_27 
REMARK    3  A    between atoms: C_6  and  C_8 
REMARK    4  A    between atoms: C_8  and  N_9 
REMARK    5  A    between atoms: N_9  and  C_10 
REMARK    6  A    between atoms: C_10  and  C_11 
REMARK    7  A    between atoms: C_11  and  C_12 
REMARK    8  A    between atoms: N_15  and  C_18 
REMARK    9  A    between atoms: C_23  and  O_35 
REMARK   10  A    between atoms: S_27  and  C_34 
REMARK   11  A    between atoms: C_28  and  C_34 
ROOT
HETATM    1  C           1     175.647 184.854 271.387  0.00  0.00    -0.010 A 
HETATM    2  C           1     175.921 183.544 271.028  0.00  0.00     0.101 A 
HETATM    3  N           1     175.784 183.064 269.773  0.00  0.00    -0.359 N 
ATOM      4  HN          1     175.996 182.093 269.545  1.00  0.00     0.166 HD
HETATM    5  C           1     175.354 183.936 268.835  0.00  0.00     0.077 A 
HETATM    6  C           1     175.055 185.265 269.097  0.00  0.00     0.004 A 
HETATM    7  C           1     175.205 185.729 270.399  0.00  0.00     0.025 A 
ENDROOT
BRANCH   6   8
HETATM    8  C           1     174.583 186.175 268.006  0.00  0.00     0.307 C 
BRANCH   8   9
HETATM    9  N           1     175.423 187.341 267.959  0.00  0.00     0.087 N 
HETATM   10  H           1     176.035 187.353 268.775  0.00  0.00     0.316 HD
BRANCH   9  11
HETATM   11  C           1     174.567 188.497 267.984  0.00  0.00     0.270 C 
BRANCH  11  12
HETATM   12  C           1     175.209 189.585 268.835  0.00  0.00     0.034 C 
BRANCH  12  13
HETATM   13  C           1     174.502 189.660 270.182  0.00  0.00    -0.010 C 
HETATM   14  C           1     173.206 188.857 270.113  0.00  0.00     0.035 C 
HETATM   15  C           1     172.556 188.736 271.490  0.00  0.00     0.272 C 
HETATM   16  N           1     173.479 188.163 272.470  0.00  0.00     0.088 N 
HETATM   17  C           1     174.692 188.971 272.599  0.00  0.00     0.272 C 
HETATM   18  C           1     175.421 189.100 271.262  0.00  0.00     0.035 C 
BRANCH  16  19
HETATM   19  C           1     172.792 188.203 273.733  0.00  0.00     0.268 C 
HETATM   20  C           1     173.713 188.789 274.795  0.00  0.00     0.037 C 
ENDBRANCH  16  19
ENDBRANCH  12  13
ENDBRANCH  11  12
ENDBRANCH   9  11
ENDBRANCH   8   9
ENDBRANCH   6   8
BRANCH   5  21
HETATM   21  S           1     175.156 183.335 267.135  0.00  0.00    -0.107 SA
BRANCH  21  22
HETATM   22  C           1     176.934 183.381 266.776  0.00  0.00     0.122 C 
BRANCH  22  23
HETATM   23  C           1     177.155 183.164 265.311  0.00  0.00    -0.049 A 
HETATM   24  C           1     177.892 182.065 264.873  0.00  0.00     0.008 A 
HETATM   25  C           1     178.098 181.863 263.507  0.00  0.00     0.001 A 
HETATM   26  C           1     177.565 182.760 262.582  0.00  0.00     0.000 A 
HETATM   27  C           1     176.827 183.858 263.021  0.00  0.00     0.001 A 
HETATM   28  C           1     176.621 184.061 264.386  0.00  0.00     0.008 A 
ENDBRANCH  22  23
ENDBRANCH  21  22
ENDBRANCH   5  21
BRANCH   1  29
HETATM   29  C           1     175.802 185.267 272.649  0.00  0.00    -0.021 A 
HETATM   30  C           1     174.860 184.921 273.617  0.00  0.00     0.057 A 
HETATM   31  C           1     175.023 185.351 274.934  0.00  0.00     0.150 A 
HETATM   32  F           1     174.131 185.023 275.850  0.00  0.00    -0.203 F 
HETATM   33  C           1     176.128 186.127 275.283  0.00  0.00     0.106 A 
HETATM   34  C           1     177.071 186.474 274.315  0.00  0.00     0.041 A 
HETATM   35  C           1     176.907 186.044 272.998  0.00  0.00     0.015 A 
BRANCH  33  36
HETATM   36  O           1     176.285 186.545 276.562  0.00  0.00    -0.353 OA
HETATM   37  C           1     177.575 186.251 277.027  0.00  0.00     0.210 C 
ENDBRANCH  33  36
ENDBRANCH   1  29
TORSDOF 11
ENDMDL
MODEL 8
REMARK VINA RESULT:      -7.5      6.595      9.773
REMARK  11 active torsions:
REMARK  status: ('A' for Active; 'I' for Inactive)
REMARK    1  A    between atoms: C_1  and  C_20 
REMARK    2  A    between atoms: C_5  and  S_27 
REMARK    3  A    between atoms: C_6  and  C_8 
REMARK    4  A    between atoms: C_8  and  N_9 
REMARK    5  A    between atoms: N_9  and  C_10 
REMARK    6  A    between atoms: C_10  and  C_11 
REMARK    7  A    between atoms: C_11  and  C_12 
REMARK    8  A    between atoms: N_15  and  C_18 
REMARK    9  A    between atoms: C_23  and  O_35 
REMARK   10  A    between atoms: S_27  and  C_34 
REMARK   11  A    between atoms: C_28  and  C_34 
ROOT
HETATM    1  C           1     175.204 185.058 271.668  0.00  0.00    -0.010 A 
HETATM    2  C           1     176.152 184.866 270.675  0.00  0.00     0.101 A 
HETATM    3  N           1     175.847 184.617 269.383  0.00  0.00    -0.359 N 
ATOM      4  HN          1     176.572 184.481 268.679  1.00  0.00     0.166 HD
HETATM    5  C           1     174.534 184.557 269.071  0.00  0.00     0.077 A 
HETATM    6  C           1     173.514 184.736 269.992  0.00  0.00     0.004 A 
HETATM    7  C           1     173.859 184.991 271.316  0.00  0.00     0.025 A 
ENDROOT
BRANCH   6   8
HETATM    8  C           1     172.079 184.657 269.574  0.00  0.00     0.307 C 
BRANCH   8   9
HETATM    9  N           1     171.261 185.345 270.536  0.00  0.00     0.087 N 
HETATM   10  H           1     170.370 184.857 270.636  0.00  0.00     0.316 HD
BRANCH   9  11
HETATM   11  C           1     171.026 186.674 270.038  0.00  0.00     0.270 C 
BRANCH  11  12
HETATM   12  C           1     171.133 187.671 271.185  0.00  0.00     0.034 C 
BRANCH  12  13
HETATM   13  C           1     172.240 188.673 270.886  0.00  0.00    -0.010 C 
HETATM   14  C           1     171.633 190.067 270.756  0.00  0.00     0.035 C 
HETATM   15  C           1     172.719 191.136 270.650  0.00  0.00     0.272 C 
HETATM   16  N           1     173.649 191.070 271.778  0.00  0.00     0.088 N 
HETATM   17  C           1     174.294 189.759 271.863  0.00  0.00     0.272 C 
HETATM   18  C           1     173.265 188.639 272.014  0.00  0.00     0.035 C 
BRANCH  16  19
HETATM   19  C           1     174.672 192.043 271.508  0.00  0.00     0.268 C 
HETATM   20  C           1     175.538 191.563 270.351  0.00  0.00     0.037 C 
ENDBRANCH  16  19
ENDBRANCH  12  13
ENDBRANCH  11  12
ENDBRANCH   9  11
ENDBRANCH   8   9
ENDBRANCH   6   8
BRANCH   5  21
HETATM   21  S           1     174.079 184.225 267.346  0.00  0.00    -0.107 SA
BRANCH  21  22
HETATM   22  C           1     174.905 185.710 266.709  0.00  0.00     0.122 C 
BRANCH  22  23
HETATM   23  C           1     174.005 186.894 266.878  0.00  0.00    -0.049 A 
HETATM   24  C           1     174.474 188.040 267.520  0.00  0.00     0.008 A 
HETATM   25  C           1     173.636 189.145 267.677  0.00  0.00     0.001 A 
HETATM   26  C           1     172.329 189.102 267.191  0.00  0.00     0.000 A 
HETATM   27  C           1     171.861 187.957 266.549  0.00  0.00     0.001 A 
HETATM   28  C           1     172.698 186.852 266.391  0.00  0.00     0.008 A 
ENDBRANCH  22  23
ENDBRANCH  21  22
ENDBRANCH   5  21
BRANCH   1  29
HETATM   29  C           1     175.571 185.301 272.930  0.00  0.00    -0.021 A 
HETATM   30  C           1     176.816 185.868 273.197  0.00  0.00     0.057 A 
HETATM   31  C           1     177.199 186.121 274.514  0.00  0.00     0.150 A 
HETATM   32  F           1     178.378 186.659 274.767  0.00  0.00    -0.203 F 
HETATM   33  C           1     176.336 185.808 275.565  0.00  0.00     0.106 A 
HETATM   34  C           1     175.090 185.240 275.298  0.00  0.00     0.041 A 
HETATM   35  C           1     174.708 184.987 273.980  0.00  0.00     0.015 A 
BRANCH  33  36
HETATM   36  O           1     176.708 186.054 276.843  0.00  0.00    -0.353 OA
HETATM   37  C           1     175.699 186.742 277.532  0.00  0.00     0.210 C 
ENDBRANCH  33  36
ENDBRANCH   1  29
TORSDOF 11
ENDMDL
MODEL 9
REMARK VINA RESULT:      -7.5      7.878     12.740
REMARK  11 active torsions:
REMARK  status: ('A' for Active; 'I' for Inactive)
REMARK    1  A    between atoms: C_1  and  C_20 
REMARK    2  A    between atoms: C_5  and  S_27 
REMARK    3  A    between atoms: C_6  and  C_8 
REMARK    4  A    between atoms: C_8  and  N_9 
REMARK    5  A    between atoms: N_9  and  C_10 
REMARK    6  A    between atoms: C_10  and  C_11 
REMARK    7  A    between atoms: C_11  and  C_12 
REMARK    8  A    between atoms: N_15  and  C_18 
REMARK    9  A    between atoms: C_23  and  O_35 
REMARK   10  A    between atoms: S_27  and  C_34 
REMARK   11  A    between atoms: C_28  and  C_34 
ROOT
HETATM    1  C           1     175.454 185.591 272.094  0.00  0.00    -0.010 A 
HETATM    2  C           1     174.290 186.249 271.730  0.00  0.00     0.101 A 
HETATM    3  N           1     173.719 186.146 270.510  0.00  0.00    -0.359 N 
ATOM      4  HN          1     172.861 186.645 270.277  1.00  0.00     0.166 HD
HETATM    5  C           1     174.343 185.350 269.615  0.00  0.00     0.077 A 
HETATM    6  C           1     175.510 184.652 269.885  0.00  0.00     0.004 A 
HETATM    7  C           1     176.074 184.778 271.151  0.00  0.00     0.025 A 
ENDROOT
BRANCH   6   8
HETATM    8  C           1     176.146 183.786 268.843  0.00  0.00     0.307 C 
BRANCH   8   9
HETATM    9  N           1     177.319 184.439 268.327  0.00  0.00     0.087 N 
HETATM   10  H           1     177.237 185.446 268.468  0.00  0.00     0.316 HD
BRANCH   9  11
HETATM   11  C           1     177.392 184.156 266.919  0.00  0.00     0.270 C 
BRANCH  11  12
HETATM   12  C           1     176.575 182.909 266.609  0.00  0.00     0.034 C 
BRANCH  12  13
HETATM   13  C           1     175.951 183.042 265.225  0.00  0.00    -0.010 C 
HETATM   14  C           1     174.440 182.859 265.337  0.00  0.00     0.035 C 
HETATM   15  C           1     173.745 183.176 264.015  0.00  0.00     0.272 C 
HETATM   16  N           1     174.079 184.519 263.541  0.00  0.00     0.088 N 
HETATM   17  C           1     175.522 184.678 263.357  0.00  0.00     0.272 C 
HETATM   18  C           1     176.283 184.417 264.656  0.00  0.00     0.035 C 
BRANCH  16  19
HETATM   19  C           1     173.457 184.652 262.251  0.00  0.00     0.268 C 
HETATM   20  C           1     172.142 185.406 262.396  0.00  0.00     0.037 C 
ENDBRANCH  16  19
ENDBRANCH  12  13
ENDBRANCH  11  12
ENDBRANCH   9  11
ENDBRANCH   8   9
ENDBRANCH   6   8
BRANCH   5  21
HETATM   21  S           1     173.611 185.182 267.963  0.00  0.00    -0.107 SA
BRANCH  21  22
HETATM   22  C           1     174.570 186.552 267.259  0.00  0.00     0.122 C 
BRANCH  22  23
HETATM   23  C           1     173.748 187.803 267.286  0.00  0.00    -0.049 A 
HETATM   24  C           1     174.279 188.974 267.826  0.00  0.00     0.008 A 
HETATM   25  C           1     173.513 190.141 267.850  0.00  0.00     0.001 A 
HETATM   26  C           1     172.217 190.135 267.334  0.00  0.00     0.000 A 
HETATM   27  C           1     171.687 188.965 266.794  0.00  0.00     0.001 A 
HETATM   28  C           1     172.452 187.798 266.769  0.00  0.00     0.008 A 
ENDBRANCH  22  23
ENDBRANCH  21  22
ENDBRANCH   5  21
BRANCH   1  29
HETATM   29  C           1     175.969 185.736 273.320  0.00  0.00    -0.021 A 
HETATM   30  C           1     175.217 185.378 274.438  0.00  0.00     0.057 A 
HETATM   31  C           1     175.754 185.528 275.716  0.00  0.00     0.150 A 
HETATM   32  F           1     175.043 185.189 276.775  0.00  0.00    -0.203 F 
HETATM   33  C           1     177.044 186.036 275.877  0.00  0.00     0.106 A 
HETATM   34  C           1     177.796 186.394 274.757  0.00  0.00     0.041 A 
HETATM   35  C           1     177.258 186.244 273.479  0.00  0.00     0.015 A 
BRANCH  33  36
HETATM   36  O           1     177.566 186.181 277.118  0.00  0.00    -0.353 OA
HETATM   37  C           1     178.651 185.314 277.307  0.00  0.00     0.210 C 
ENDBRANCH  33  36
ENDBRANCH   1  29
TORSDOF 11
ENDMDL
