REMARK  8 active torsions:
REMARK  status: ('A' for Active; 'I' for Inactive)
REMARK    1  A    between atoms: N2_7  and  C6_8 
REMARK    2  A    between atoms: C6_8  and  C7_9 
REMARK    3  A    between atoms: C7_9  and  N3_10 
REMARK    4  A    between atoms: N3_10  and  C8_11 
REMARK    5  A    between atoms: C8_11  and  C9_12 
REMARK    6  A    between atoms: C17_22  and  S1_23 
REMARK    7  A    between atoms: S1_23  and  C18_24 
REMARK    8  A    between atoms: C18_24  and  C19_25 
ROOT
HETATM    1  C9  UNL     1       2.035  -0.071  -1.109  1.00  0.00     0.006 A 
HETATM    2  C10 UNL     1       3.222   0.110  -1.838  1.00  0.00     0.025 A 
HETATM    3  C11 UNL     1       3.779   1.386  -1.978  1.00  0.00    -0.005 A 
HETATM    4  C12 UNL     1       4.965   1.588  -2.700  1.00  0.00     0.032 A 
HETATM    5  C13 UNL     1       5.501   2.876  -2.819  1.00  0.00     0.011 A 
HETATM    6 BR1  UNL     1       7.114   3.151  -3.804  1.00  0.00    -0.051 Br
HETATM    7  C14 UNL     1       4.856   3.962  -2.217  1.00  0.00     0.021 A 
HETATM    8  C15 UNL     1       3.674   3.767  -1.496  1.00  0.00     0.034 A 
HETATM    9  C16 UNL     1       3.132   2.483  -1.374  1.00  0.00     0.068 A 
HETATM   10  N4  UNL     1       1.982   2.291  -0.679  1.00  0.00    -0.241 NA
HETATM   11  C17 UNL     1       1.412   1.064  -0.539  1.00  0.00     0.102 A 
ENDROOT
BRANCH   1  12
HETATM   12  C8  UNL     1       1.475  -1.464  -0.941  1.00  0.00     0.311 C 
BRANCH  12  13
HETATM   13  N3  UNL     1       1.526  -1.864   0.473  1.00  0.00     0.089 N 
HETATM   14  H16 UNL     1       2.535  -1.957   0.737  1.00  0.00     0.316 HD
BRANCH  13  15
HETATM   15  C7  UNL     1       0.889  -3.174   0.681  1.00  0.00     0.300 C 
BRANCH  15  16
HETATM   16  C6  UNL     1      -0.637  -3.036   0.851  1.00  0.00     0.302 C 
BRANCH  16  17
HETATM   17  N2  UNL     1      -1.033  -3.073   2.275  1.00  0.00     0.093 N 
HETATM   18  C3  UNL     1      -2.449  -3.497   2.402  1.00  0.00     0.302 C 
HETATM   19  C2  UNL     1      -3.060  -3.049   3.738  1.00  0.00     0.302 C 
HETATM   20  N1  UNL     1      -3.044  -1.573   3.894  1.00  0.00     0.087 N 
HETATM   21  C1  UNL     1      -4.358  -0.986   3.588  1.00  0.00     0.310 C 
HETATM   22  C4  UNL     1      -1.986  -0.906   3.102  1.00  0.00     0.302 C 
HETATM   23  C5  UNL     1      -0.741  -1.795   2.976  1.00  0.00     0.302 C 
ENDBRANCH  16  17
ENDBRANCH  15  16
ENDBRANCH  13  15
ENDBRANCH  12  13
ENDBRANCH   1  12
BRANCH  11  24
HETATM   24  S1  UNL     1      -0.125   0.951   0.389  1.00  0.00    -0.105 SA
BRANCH  24  25
HETATM   25  C18 UNL     1      -1.184   1.546  -0.976  1.00  0.00     0.119 C 
BRANCH  25  26
HETATM   26  C19 UNL     1      -1.496   0.428  -1.928  1.00  0.00    -0.049 A 
HETATM   27  C20 UNL     1      -0.891   0.379  -3.195  1.00  0.00     0.008 A 
HETATM   28  C21 UNL     1      -1.158  -0.687  -4.060  1.00  0.00     0.001 A 
HETATM   29  C22 UNL     1      -2.032  -1.705  -3.670  1.00  0.00     0.000 A 
HETATM   30  C23 UNL     1      -2.645  -1.657  -2.414  1.00  0.00     0.001 A 
HETATM   31  C24 UNL     1      -2.382  -0.593  -1.547  1.00  0.00     0.008 A 
ENDBRANCH  25  26
ENDBRANCH  24  25
ENDBRANCH  11  24
TORSDOF 8
