MODEL 1
REMARK VINA RESULT:      -8.2      0.000      0.000
REMARK  10 active torsions:
REMARK  status: ('A' for Active; 'I' for Inactive)
REMARK    1  A    between atoms: C2_2  and  C3_3 
REMARK    2  A    between atoms: C3_3  and  N1_4 
REMARK    3  A    between atoms: C8_9  and  C9_10 
REMARK    4  A    between atoms: C9_10  and  C10_11 
REMARK    5  A    between atoms: C10_11  and  N2_12 
REMARK    6  A    between atoms: N2_12  and  C11_13 
REMARK    7  A    between atoms: C11_13  and  C12_14 
REMARK    8  A    between atoms: C20_24  and  S1_25 
REMARK    9  A    between atoms: S1_25  and  C21_26 
REMARK   10  A    between atoms: C21_26  and  C22_27 
ROOT
HETATM    1  C12 UNL     1     172.901 186.868 280.636  1.00  0.00     0.006 A 
HETATM    2  C13 UNL     1     172.912 187.963 281.515  1.00  0.00     0.025 A 
HETATM    3  C14 UNL     1     172.058 189.050 281.299  1.00  0.00    -0.005 A 
HETATM    4  C15 UNL     1     172.046 190.151 282.169  1.00  0.00     0.032 A 
HETATM    5  C16 UNL     1     171.174 191.220 281.933  1.00  0.00     0.011 A 
HETATM    6 BR1  UNL     1     171.158 192.716 283.118  1.00  0.00    -0.051 Br
HETATM    7  C17 UNL     1     170.314 191.193 280.830  1.00  0.00     0.021 A 
HETATM    8  C18 UNL     1     170.321 190.099 279.959  1.00  0.00     0.034 A 
HETATM    9  C19 UNL     1     171.190 189.027 280.189  1.00  0.00     0.068 A 
HETATM   10  N3  UNL     1     171.199 187.963 279.345  1.00  0.00    -0.241 NA
HETATM   11  C20 UNL     1     172.028 186.901 279.525  1.00  0.00     0.102 A 
ENDROOT
BRANCH   1  12
HETATM   12  C11 UNL     1     173.793 185.682 280.915  1.00  0.00     0.311 C 
BRANCH  12  13
HETATM   13  N2  UNL     1     173.428 185.069 282.196  1.00  0.00     0.087 N 
HETATM   14  H21 UNL     1     172.712 185.685 282.649  1.00  0.00     0.316 HD
BRANCH  13  15
HETATM   15  C10 UNL     1     174.588 184.957 283.099  1.00  0.00     0.270 C 
BRANCH  15  16
HETATM   16  C9  UNL     1     174.138 185.084 284.565  1.00  0.00     0.034 C 
BRANCH  16  17
HETATM   17  C8  UNL     1     172.722 185.698 284.731  1.00  0.00    -0.010 C 
HETATM   18  C5  UNL     1     171.854 184.952 285.762  1.00  0.00     0.035 C 
HETATM   19  C4  UNL     1     172.390 185.108 287.201  1.00  0.00     0.272 C 
HETATM   20  N1  UNL     1     173.175 186.354 287.402  1.00  0.00     0.088 N 
HETATM   21  C6  UNL     1     172.621 187.468 286.607  1.00  0.00     0.272 C 
HETATM   22  C7  UNL     1     172.798 187.202 285.101  1.00  0.00     0.035 C 
BRANCH  20  23
HETATM   23  C3  UNL     1     173.235 186.729 288.832  1.00  0.00     0.272 C 
BRANCH  23  24
HETATM   24  C2  UNL     1     174.315 185.927 289.572  1.00  0.00     0.026 C 
HETATM   25  C1  UNL     1     173.752 185.265 290.826  1.00  0.00     0.007 C 
ENDBRANCH  23  24
ENDBRANCH  20  23
ENDBRANCH  16  17
ENDBRANCH  15  16
ENDBRANCH  13  15
ENDBRANCH  12  13
ENDBRANCH   1  12
BRANCH  11  26
HETATM   26  S1  UNL     1     171.955 185.558 278.329  1.00  0.00    -0.105 SA
BRANCH  26  27
HETATM   27  C21 UNL     1     172.550 186.557 276.921  1.00  0.00     0.119 C 
BRANCH  27  28
HETATM   28  C22 UNL     1     173.967 186.198 276.577  1.00  0.00    -0.049 A 
HETATM   29  C23 UNL     1     174.242 185.305 275.527  1.00  0.00     0.008 A 
HETATM   30  C24 UNL     1     175.564 184.997 275.195  1.00  0.00     0.001 A 
HETATM   31  C25 UNL     1     176.618 185.572 275.910  1.00  0.00     0.000 A 
HETATM   32  C26 UNL     1     176.353 186.454 276.960  1.00  0.00     0.001 A 
HETATM   33  C27 UNL     1     175.033 186.767 277.295  1.00  0.00     0.008 A 
ENDBRANCH  27  28
ENDBRANCH  26  27
ENDBRANCH  11  26
TORSDOF 10
ENDMDL
MODEL 2
REMARK VINA RESULT:      -7.6      2.251      8.431
REMARK  10 active torsions:
REMARK  status: ('A' for Active; 'I' for Inactive)
REMARK    1  A    between atoms: C2_2  and  C3_3 
REMARK    2  A    between atoms: C3_3  and  N1_4 
REMARK    3  A    between atoms: C8_9  and  C9_10 
REMARK    4  A    between atoms: C9_10  and  C10_11 
REMARK    5  A    between atoms: C10_11  and  N2_12 
REMARK    6  A    between atoms: N2_12  and  C11_13 
REMARK    7  A    between atoms: C11_13  and  C12_14 
REMARK    8  A    between atoms: C20_24  and  S1_25 
REMARK    9  A    between atoms: S1_25  and  C21_26 
REMARK   10  A    between atoms: C21_26  and  C22_27 
ROOT
HETATM    1  C12 UNL     1     173.118 187.298 280.308  1.00  0.00     0.006 A 
HETATM    2  C13 UNL     1     172.034 188.137 280.006  1.00  0.00     0.025 A 
HETATM    3  C14 UNL     1     171.678 189.173 280.876  1.00  0.00    -0.005 A 
HETATM    4  C15 UNL     1     170.604 190.029 280.590  1.00  0.00     0.032 A 
HETATM    5  C16 UNL     1     170.277 191.063 281.475  1.00  0.00     0.011 A 
HETATM    6 BR1  UNL     1     168.817 192.228 281.083  1.00  0.00    -0.051 Br
HETATM    7  C17 UNL     1     171.021 191.244 282.647  1.00  0.00     0.021 A 
HETATM    8  C18 UNL     1     172.092 190.394 282.938  1.00  0.00     0.034 A 
HETATM    9  C19 UNL     1     172.425 189.359 282.058  1.00  0.00     0.068 A 
HETATM   10  N3  UNL     1     173.465 188.532 282.338  1.00  0.00    -0.241 NA
HETATM   11  C20 UNL     1     173.822 187.510 281.516  1.00  0.00     0.102 A 
ENDROOT
BRANCH   1  12
HETATM   12  C11 UNL     1     173.517 186.218 279.332  1.00  0.00     0.311 C 
BRANCH  12  13
HETATM   13  N2  UNL     1     172.360 185.373 279.017  1.00  0.00     0.087 N 
HETATM   14  H21 UNL     1     172.592 184.397 279.317  1.00  0.00     0.316 HD
BRANCH  13  15
HETATM   15  C10 UNL     1     172.069 185.362 277.571  1.00  0.00     0.270 C 
BRANCH  15  16
HETATM   16  C9  UNL     1     173.355 185.625 276.767  1.00  0.00     0.034 C 
BRANCH  16  17
HETATM   17  C8  UNL     1     173.120 186.427 275.460  1.00  0.00    -0.010 C 
HETATM   18  C5  UNL     1     173.905 187.751 275.409  1.00  0.00     0.035 C 
HETATM   19  C4  UNL     1     175.430 187.523 275.320  1.00  0.00     0.272 C 
HETATM   20  N1  UNL     1     175.793 186.224 274.698  1.00  0.00     0.088 N 
HETATM   21  C6  UNL     1     174.846 185.862 273.625  1.00  0.00     0.272 C 
HETATM   22  C7  UNL     1     173.449 185.574 274.208  1.00  0.00     0.035 C 
BRANCH  20  23
HETATM   23  C3  UNL     1     177.176 186.246 274.171  1.00  0.00     0.272 C 
BRANCH  23  24
HETATM   24  C2  UNL     1     178.198 186.427 275.300  1.00  0.00     0.026 C 
HETATM   25  C1  UNL     1     177.930 185.462 276.451  1.00  0.00     0.007 C 
ENDBRANCH  23  24
ENDBRANCH  20  23
ENDBRANCH  16  17
ENDBRANCH  15  16
ENDBRANCH  13  15
ENDBRANCH  12  13
ENDBRANCH   1  12
BRANCH  11  26
HETATM   26  S1  UNL     1     175.210 186.476 282.006  1.00  0.00    -0.105 SA
BRANCH  26  27
HETATM   27  C21 UNL     1     174.193 185.019 282.427  1.00  0.00     0.119 C 
BRANCH  27  28
HETATM   28  C22 UNL     1     173.892 184.990 283.898  1.00  0.00    -0.049 A 
HETATM   29  C23 UNL     1     172.608 185.314 284.370  1.00  0.00     0.008 A 
HETATM   30  C24 UNL     1     172.327 185.257 285.738  1.00  0.00     0.001 A 
HETATM   31  C25 UNL     1     173.324 184.884 286.643  1.00  0.00     0.000 A 
HETATM   32  C26 UNL     1     174.605 184.568 286.182  1.00  0.00     0.001 A 
HETATM   33  C27 UNL     1     174.890 184.621 284.815  1.00  0.00     0.008 A 
ENDBRANCH  27  28
ENDBRANCH  26  27
ENDBRANCH  11  26
TORSDOF 10
ENDMDL
MODEL 3
REMARK VINA RESULT:      -7.5     10.508     14.781
REMARK  10 active torsions:
REMARK  status: ('A' for Active; 'I' for Inactive)
REMARK    1  A    between atoms: C2_2  and  C3_3 
REMARK    2  A    between atoms: C3_3  and  N1_4 
REMARK    3  A    between atoms: C8_9  and  C9_10 
REMARK    4  A    between atoms: C9_10  and  C10_11 
REMARK    5  A    between atoms: C10_11  and  N2_12 
REMARK    6  A    between atoms: N2_12  and  C11_13 
REMARK    7  A    between atoms: C11_13  and  C12_14 
REMARK    8  A    between atoms: C20_24  and  S1_25 
REMARK    9  A    between atoms: S1_25  and  C21_26 
REMARK   10  A    between atoms: C21_26  and  C22_27 
ROOT
HETATM    1  C12 UNL     1     176.087 184.489 268.323  1.00  0.00     0.006 A 
HETATM    2  C13 UNL     1     176.845 183.650 267.491  1.00  0.00     0.025 A 
HETATM    3  C14 UNL     1     176.748 183.760 266.100  1.00  0.00    -0.005 A 
HETATM    4  C15 UNL     1     177.503 182.938 265.250  1.00  0.00     0.032 A 
HETATM    5  C16 UNL     1     177.393 183.078 263.862  1.00  0.00     0.011 A 
HETATM    6 BR1  UNL     1     178.421 181.960 262.705  1.00  0.00    -0.051 Br
HETATM    7  C17 UNL     1     176.529 184.037 263.320  1.00  0.00     0.021 A 
HETATM    8  C18 UNL     1     175.774 184.860 264.162  1.00  0.00     0.034 A 
HETATM    9  C19 UNL     1     175.880 184.725 265.550  1.00  0.00     0.068 A 
HETATM   10  N3  UNL     1     175.148 185.522 266.370  1.00  0.00    -0.241 NA
HETATM   11  C20 UNL     1     175.214 185.426 267.725  1.00  0.00     0.102 A 
ENDROOT
BRANCH   1  12
HETATM   12  C11 UNL     1     176.244 184.388 269.821  1.00  0.00     0.311 C 
BRANCH  12  13
HETATM   13  N2  UNL     1     175.858 183.049 270.278  1.00  0.00     0.087 N 
HETATM   14  H21 UNL     1     175.281 182.611 269.521  1.00  0.00     0.316 HD
BRANCH  13  15
HETATM   15  C10 UNL     1     175.051 183.104 271.511  1.00  0.00     0.270 C 
BRANCH  15  16
HETATM   16  C9  UNL     1     174.536 184.534 271.747  1.00  0.00     0.034 C 
BRANCH  16  17
HETATM   17  C8  UNL     1     174.852 185.086 273.162  1.00  0.00    -0.010 C 
HETATM   18  C5  UNL     1     176.159 185.898 273.220  1.00  0.00     0.035 C 
HETATM   19  C4  UNL     1     176.062 187.220 272.427  1.00  0.00     0.272 C 
HETATM   20  N1  UNL     1     174.673 187.735 272.315  1.00  0.00     0.088 N 
HETATM   21  C6  UNL     1     173.899 187.455 273.541  1.00  0.00     0.272 C 
HETATM   22  C7  UNL     1     173.679 185.940 273.710  1.00  0.00     0.035 C 
BRANCH  20  23
HETATM   23  C3  UNL     1     174.657 189.186 272.023  1.00  0.00     0.272 C 
BRANCH  23  24
HETATM   24  C2  UNL     1     175.669 189.543 270.926  1.00  0.00     0.026 C 
HETATM   25  C1  UNL     1     175.547 191.006 270.513  1.00  0.00     0.007 C 
ENDBRANCH  23  24
ENDBRANCH  20  23
ENDBRANCH  16  17
ENDBRANCH  15  16
ENDBRANCH  13  15
ENDBRANCH  12  13
ENDBRANCH   1  12
BRANCH  11  26
HETATM   26  S1  UNL     1     174.184 186.530 268.702  1.00  0.00    -0.105 SA
BRANCH  26  27
HETATM   27  C21 UNL     1     174.545 188.019 267.708  1.00  0.00     0.119 C 
BRANCH  27  28
HETATM   28  C22 UNL     1     173.279 188.758 267.381  1.00  0.00    -0.049 A 
HETATM   29  C23 UNL     1     172.216 188.101 266.736  1.00  0.00     0.008 A 
HETATM   30  C24 UNL     1     171.031 188.788 266.460  1.00  0.00     0.001 A 
HETATM   31  C25 UNL     1     170.900 190.133 266.818  1.00  0.00     0.000 A 
HETATM   32  C26 UNL     1     171.955 190.794 267.452  1.00  0.00     0.001 A 
HETATM   33  C27 UNL     1     173.142 190.112 267.732  1.00  0.00     0.008 A 
ENDBRANCH  27  28
ENDBRANCH  26  27
ENDBRANCH  11  26
TORSDOF 10
ENDMDL
MODEL 4
REMARK VINA RESULT:      -7.5      2.316      9.178
REMARK  10 active torsions:
REMARK  status: ('A' for Active; 'I' for Inactive)
REMARK    1  A    between atoms: C2_2  and  C3_3 
REMARK    2  A    between atoms: C3_3  and  N1_4 
REMARK    3  A    between atoms: C8_9  and  C9_10 
REMARK    4  A    between atoms: C9_10  and  C10_11 
REMARK    5  A    between atoms: C10_11  and  N2_12 
REMARK    6  A    between atoms: N2_12  and  C11_13 
REMARK    7  A    between atoms: C11_13  and  C12_14 
REMARK    8  A    between atoms: C20_24  and  S1_25 
REMARK    9  A    between atoms: S1_25  and  C21_26 
REMARK   10  A    between atoms: C21_26  and  C22_27 
ROOT
HETATM    1  C12 UNL     1     172.670 187.182 280.336  1.00  0.00     0.006 A 
HETATM    2  C13 UNL     1     171.795 188.209 279.946  1.00  0.00     0.025 A 
HETATM    3  C14 UNL     1     171.614 189.330 280.762  1.00  0.00    -0.005 A 
HETATM    4  C15 UNL     1     170.752 190.372 280.388  1.00  0.00     0.032 A 
HETATM    5  C16 UNL     1     170.599 191.487 281.221  1.00  0.00     0.011 A 
HETATM    6 BR1  UNL     1     169.426 192.904 280.711  1.00  0.00    -0.051 Br
HETATM    7  C17 UNL     1     171.304 191.564 282.427  1.00  0.00     0.021 A 
HETATM    8  C18 UNL     1     172.165 190.529 282.806  1.00  0.00     0.034 A 
HETATM    9  C19 UNL     1     172.323 189.412 281.978  1.00  0.00     0.068 A 
HETATM   10  N3  UNL     1     173.159 188.405 282.343  1.00  0.00    -0.241 NA
HETATM   11  C20 UNL     1     173.341 187.299 281.574  1.00  0.00     0.102 A 
ENDROOT
BRANCH   1  12
HETATM   12  C11 UNL     1     172.889 186.004 279.418  1.00  0.00     0.311 C 
BRANCH  12  13
HETATM   13  N2  UNL     1     173.433 186.462 278.135  1.00  0.00     0.087 N 
HETATM   14  H21 UNL     1     173.313 185.683 277.445  1.00  0.00     0.316 HD
BRANCH  13  15
HETATM   15  C10 UNL     1     174.868 186.785 278.234  1.00  0.00     0.270 C 
BRANCH  15  16
HETATM   16  C9  UNL     1     175.428 187.153 276.849  1.00  0.00     0.034 C 
BRANCH  16  17
HETATM   17  C8  UNL     1     176.573 186.221 276.371  1.00  0.00    -0.010 C 
HETATM   18  C5  UNL     1     176.078 184.834 275.920  1.00  0.00     0.035 C 
HETATM   19  C4  UNL     1     175.229 184.905 274.633  1.00  0.00     0.272 C 
HETATM   20  N1  UNL     1     175.554 186.078 273.780  1.00  0.00     0.088 N 
HETATM   21  C6  UNL     1     176.996 186.391 273.830  1.00  0.00     0.272 C 
HETATM   22  C7  UNL     1     177.398 186.878 275.234  1.00  0.00     0.035 C 
BRANCH  20  23
HETATM   23  C3  UNL     1     175.126 185.863 272.380  1.00  0.00     0.272 C 
BRANCH  23  24
HETATM   24  C2  UNL     1     176.177 185.065 271.595  1.00  0.00     0.026 C 
HETATM   25  C1  UNL     1     175.633 183.705 271.166  1.00  0.00     0.007 C 
ENDBRANCH  23  24
ENDBRANCH  20  23
ENDBRANCH  16  17
ENDBRANCH  15  16
ENDBRANCH  13  15
ENDBRANCH  12  13
ENDBRANCH   1  12
BRANCH  11  26
HETATM   26  S1  UNL     1     174.464 186.028 282.175  1.00  0.00    -0.105 SA
BRANCH  26  27
HETATM   27  C21 UNL     1     173.185 185.087 283.076  1.00  0.00     0.119 C 
BRANCH  27  28
HETATM   28  C22 UNL     1     173.478 185.069 284.549  1.00  0.00    -0.049 A 
HETATM   29  C23 UNL     1     174.806 185.038 285.011  1.00  0.00     0.008 A 
HETATM   30  C24 UNL     1     175.072 185.051 286.383  1.00  0.00     0.001 A 
HETATM   31  C25 UNL     1     174.019 185.088 287.301  1.00  0.00     0.000 A 
HETATM   32  C26 UNL     1     172.697 185.111 286.849  1.00  0.00     0.001 A 
HETATM   33  C27 UNL     1     172.425 185.101 285.478  1.00  0.00     0.008 A 
ENDBRANCH  27  28
ENDBRANCH  26  27
ENDBRANCH  11  26
TORSDOF 10
ENDMDL
MODEL 5
REMARK VINA RESULT:      -7.4      9.019     13.990
REMARK  10 active torsions:
REMARK  status: ('A' for Active; 'I' for Inactive)
REMARK    1  A    between atoms: C2_2  and  C3_3 
REMARK    2  A    between atoms: C3_3  and  N1_4 
REMARK    3  A    between atoms: C8_9  and  C9_10 
REMARK    4  A    between atoms: C9_10  and  C10_11 
REMARK    5  A    between atoms: C10_11  and  N2_12 
REMARK    6  A    between atoms: N2_12  and  C11_13 
REMARK    7  A    between atoms: C11_13  and  C12_14 
REMARK    8  A    between atoms: C20_24  and  S1_25 
REMARK    9  A    between atoms: S1_25  and  C21_26 
REMARK   10  A    between atoms: C21_26  and  C22_27 
ROOT
HETATM    1  C12 UNL     1     176.292 184.543 268.335  1.00  0.00     0.006 A 
HETATM    2  C13 UNL     1     177.004 183.713 267.453  1.00  0.00     0.025 A 
HETATM    3  C14 UNL     1     176.811 183.821 266.072  1.00  0.00    -0.005 A 
HETATM    4  C15 UNL     1     177.517 183.008 265.173  1.00  0.00     0.032 A 
HETATM    5  C16 UNL     1     177.311 183.145 263.795  1.00  0.00     0.011 A 
HETATM    6 BR1  UNL     1     178.274 182.041 262.572  1.00  0.00    -0.051 Br
HETATM    7  C17 UNL     1     176.399 184.092 263.313  1.00  0.00     0.021 A 
HETATM    8  C18 UNL     1     175.691 184.904 264.204  1.00  0.00     0.034 A 
HETATM    9  C19 UNL     1     175.893 184.773 265.582  1.00  0.00     0.068 A 
HETATM   10  N3  UNL     1     175.207 185.560 266.451  1.00  0.00    -0.241 NA
HETATM   11  C20 UNL     1     175.367 185.466 267.797  1.00  0.00     0.102 A 
ENDROOT
BRANCH   1  12
HETATM   12  C11 UNL     1     176.551 184.446 269.819  1.00  0.00     0.311 C 
BRANCH  12  13
HETATM   13  N2  UNL     1     175.961 183.214 270.353  1.00  0.00     0.087 N 
HETATM   14  H21 UNL     1     175.728 182.597 269.540  1.00  0.00     0.316 HD
BRANCH  13  15
HETATM   15  C10 UNL     1     174.722 183.484 271.106  1.00  0.00     0.270 C 
BRANCH  15  16
HETATM   16  C9  UNL     1     175.051 184.170 272.444  1.00  0.00     0.034 C 
BRANCH  16  17
HETATM   17  C8  UNL     1     174.591 185.651 272.515  1.00  0.00    -0.010 C 
HETATM   18  C5  UNL     1     173.481 185.893 273.555  1.00  0.00     0.035 C 
HETATM   19  C4  UNL     1     173.980 185.692 275.002  1.00  0.00     0.272 C 
HETATM   20  N1  UNL     1     175.440 185.926 275.156  1.00  0.00     0.088 N 
HETATM   21  C6  UNL     1     175.902 187.014 274.272  1.00  0.00     0.272 C 
HETATM   22  C7  UNL     1     175.785 186.600 272.793  1.00  0.00     0.035 C 
BRANCH  20  23
HETATM   23  C3  UNL     1     175.792 186.226 276.562  1.00  0.00     0.272 C 
BRANCH  23  24
HETATM   24  C2  UNL     1     177.274 186.601 276.695  1.00  0.00     0.026 C 
HETATM   25  C1  UNL     1     178.163 185.361 276.683  1.00  0.00     0.007 C 
ENDBRANCH  23  24
ENDBRANCH  20  23
ENDBRANCH  16  17
ENDBRANCH  15  16
ENDBRANCH  13  15
ENDBRANCH  12  13
ENDBRANCH   1  12
BRANCH  11  26
HETATM   26  S1  UNL     1     174.389 186.557 268.842  1.00  0.00    -0.105 SA
BRANCH  26  27
HETATM   27  C21 UNL     1     174.710 188.062 267.858  1.00  0.00     0.119 C 
BRANCH  27  28
HETATM   28  C22 UNL     1     173.420 188.726 267.470  1.00  0.00    -0.049 A 
HETATM   29  C23 UNL     1     172.404 187.993 266.833  1.00  0.00     0.008 A 
HETATM   30  C24 UNL     1     171.195 188.611 266.500  1.00  0.00     0.001 A 
HETATM   31  C25 UNL     1     170.995 189.962 266.794  1.00  0.00     0.000 A 
HETATM   32  C26 UNL     1     172.003 190.700 267.420  1.00  0.00     0.001 A 
HETATM   33  C27 UNL     1     173.213 190.086 267.757  1.00  0.00     0.008 A 
ENDBRANCH  27  28
ENDBRANCH  26  27
ENDBRANCH  11  26
TORSDOF 10
ENDMDL
MODEL 6
REMARK VINA RESULT:      -7.4      7.954     12.303
REMARK  10 active torsions:
REMARK  status: ('A' for Active; 'I' for Inactive)
REMARK    1  A    between atoms: C2_2  and  C3_3 
REMARK    2  A    between atoms: C3_3  and  N1_4 
REMARK    3  A    between atoms: C8_9  and  C9_10 
REMARK    4  A    between atoms: C9_10  and  C10_11 
REMARK    5  A    between atoms: C10_11  and  N2_12 
REMARK    6  A    between atoms: N2_12  and  C11_13 
REMARK    7  A    between atoms: C11_13  and  C12_14 
REMARK    8  A    between atoms: C20_24  and  S1_25 
REMARK    9  A    between atoms: S1_25  and  C21_26 
REMARK   10  A    between atoms: C21_26  and  C22_27 
ROOT
HETATM    1  C12 UNL     1     174.008 188.771 267.747  1.00  0.00     0.006 A 
HETATM    2  C13 UNL     1     173.306 189.985 267.825  1.00  0.00     0.025 A 
HETATM    3  C14 UNL     1     172.031 190.101 267.260  1.00  0.00    -0.005 A 
HETATM    4  C15 UNL     1     171.308 191.301 267.334  1.00  0.00     0.032 A 
HETATM    5  C16 UNL     1     170.031 191.384 266.769  1.00  0.00     0.011 A 
HETATM    6 BR1  UNL     1     169.047 193.017 266.870  1.00  0.00    -0.051 Br
HETATM    7  C17 UNL     1     169.473 190.271 266.129  1.00  0.00     0.021 A 
HETATM    8  C18 UNL     1     170.188 189.072 266.052  1.00  0.00     0.034 A 
HETATM    9  C19 UNL     1     171.465 188.982 266.615  1.00  0.00     0.068 A 
HETATM   10  N3  UNL     1     172.163 187.819 266.542  1.00  0.00    -0.241 NA
HETATM   11  C20 UNL     1     173.408 187.685 267.071  1.00  0.00     0.102 A 
ENDROOT
BRANCH   1  12
HETATM   12  C11 UNL     1     175.361 188.652 268.406  1.00  0.00     0.311 C 
BRANCH  12  13
HETATM   13  N2  UNL     1     175.280 189.096 269.802  1.00  0.00     0.087 N 
HETATM   14  H21 UNL     1     176.259 189.245 270.143  1.00  0.00     0.316 HD
BRANCH  13  15
HETATM   15  C10 UNL     1     174.633 188.086 270.660  1.00  0.00     0.270 C 
BRANCH  15  16
HETATM   16  C9  UNL     1     175.443 187.889 271.953  1.00  0.00     0.034 C 
BRANCH  16  17
HETATM   17  C8  UNL     1     175.682 186.400 272.319  1.00  0.00    -0.010 C 
HETATM   18  C5  UNL     1     176.816 186.199 273.341  1.00  0.00     0.035 C 
HETATM   19  C4  UNL     1     176.458 186.767 274.731  1.00  0.00     0.272 C 
HETATM   20  N1  UNL     1     174.995 186.807 274.989  1.00  0.00     0.088 N 
HETATM   21  C6  UNL     1     174.313 185.650 274.375  1.00  0.00     0.272 C 
HETATM   22  C7  UNL     1     174.383 185.731 272.839  1.00  0.00     0.035 C 
BRANCH  20  23
HETATM   23  C3  UNL     1     174.704 186.859 276.439  1.00  0.00     0.272 C 
BRANCH  23  24
HETATM   24  C2  UNL     1     174.006 185.578 276.913  1.00  0.00     0.026 C 
HETATM   25  C1  UNL     1     172.857 185.892 277.866  1.00  0.00     0.007 C 
ENDBRANCH  23  24
ENDBRANCH  20  23
ENDBRANCH  16  17
ENDBRANCH  15  16
ENDBRANCH  13  15
ENDBRANCH  12  13
ENDBRANCH   1  12
BRANCH  11  26
HETATM   26  S1  UNL     1     174.234 186.096 266.896  1.00  0.00    -0.105 SA
BRANCH  26  27
HETATM   27  C21 UNL     1     173.551 185.383 268.433  1.00  0.00     0.119 C 
BRANCH  27  28
HETATM   28  C22 UNL     1     174.599 184.597 269.165  1.00  0.00    -0.049 A 
HETATM   29  C23 UNL     1     174.232 183.550 270.028  1.00  0.00     0.008 A 
HETATM   30  C24 UNL     1     175.215 182.803 270.684  1.00  0.00     0.001 A 
HETATM   31  C25 UNL     1     176.567 183.099 270.489  1.00  0.00     0.000 A 
HETATM   32  C26 UNL     1     176.939 184.143 269.639  1.00  0.00     0.001 A 
HETATM   33  C27 UNL     1     175.961 184.892 268.978  1.00  0.00     0.008 A 
ENDBRANCH  27  28
ENDBRANCH  26  27
ENDBRANCH  11  26
TORSDOF 10
ENDMDL
MODEL 7
REMARK VINA RESULT:      -7.2      6.648     10.526
REMARK  10 active torsions:
REMARK  status: ('A' for Active; 'I' for Inactive)
REMARK    1  A    between atoms: C2_2  and  C3_3 
REMARK    2  A    between atoms: C3_3  and  N1_4 
REMARK    3  A    between atoms: C8_9  and  C9_10 
REMARK    4  A    between atoms: C9_10  and  C10_11 
REMARK    5  A    between atoms: C10_11  and  N2_12 
REMARK    6  A    between atoms: N2_12  and  C11_13 
REMARK    7  A    between atoms: C11_13  and  C12_14 
REMARK    8  A    between atoms: C20_24  and  S1_25 
REMARK    9  A    between atoms: S1_25  and  C21_26 
REMARK   10  A    between atoms: C21_26  and  C22_27 
ROOT
HETATM    1  C12 UNL     1     174.522 189.848 270.365  1.00  0.00     0.006 A 
HETATM    2  C13 UNL     1     173.936 191.046 270.805  1.00  0.00     0.025 A 
HETATM    3  C14 UNL     1     172.808 191.560 270.157  1.00  0.00    -0.005 A 
HETATM    4  C15 UNL     1     172.201 192.751 270.584  1.00  0.00     0.032 A 
HETATM    5  C16 UNL     1     171.067 193.236 269.922  1.00  0.00     0.011 A 
HETATM    6 BR1  UNL     1     170.241 194.855 270.506  1.00  0.00    -0.051 Br
HETATM    7  C17 UNL     1     170.538 192.535 268.832  1.00  0.00     0.021 A 
HETATM    8  C18 UNL     1     171.138 191.348 268.401  1.00  0.00     0.034 A 
HETATM    9  C19 UNL     1     172.271 190.857 269.058  1.00  0.00     0.068 A 
HETATM   10  N3  UNL     1     172.857 189.705 268.642  1.00  0.00    -0.241 NA
HETATM   11  C20 UNL     1     173.961 189.192 269.246  1.00  0.00     0.102 A 
ENDROOT
BRANCH   1  12
HETATM   12  C11 UNL     1     175.707 189.284 271.110  1.00  0.00     0.311 C 
BRANCH  12  13
HETATM   13  N2  UNL     1     175.357 189.061 272.516  1.00  0.00     0.087 N 
HETATM   14  H21 UNL     1     176.138 189.442 273.101  1.00  0.00     0.316 HD
BRANCH  13  15
HETATM   15  C10 UNL     1     175.202 187.626 272.819  1.00  0.00     0.270 C 
BRANCH  15  16
HETATM   16  C9  UNL     1     176.501 187.066 273.424  1.00  0.00     0.034 C 
BRANCH  16  17
HETATM   17  C8  UNL     1     176.347 185.644 274.026  1.00  0.00    -0.010 C 
HETATM   18  C5  UNL     1     176.909 185.525 275.455  1.00  0.00     0.035 C 
HETATM   19  C4  UNL     1     176.091 186.345 276.476  1.00  0.00     0.272 C 
HETATM   20  N1  UNL     1     174.677 186.546 276.067  1.00  0.00     0.088 N 
HETATM   21  C6  UNL     1     174.153 185.362 275.357  1.00  0.00     0.272 C 
HETATM   22  C7  UNL     1     174.868 185.179 274.005  1.00  0.00     0.035 C 
BRANCH  20  23
HETATM   23  C3  UNL     1     173.819 186.863 277.231  1.00  0.00     0.272 C 
BRANCH  23  24
HETATM   24  C2  UNL     1     172.998 185.641 277.666  1.00  0.00     0.026 C 
HETATM   25  C1  UNL     1     172.647 185.710 279.149  1.00  0.00     0.007 C 
ENDBRANCH  23  24
ENDBRANCH  20  23
ENDBRANCH  16  17
ENDBRANCH  15  16
ENDBRANCH  13  15
ENDBRANCH  12  13
ENDBRANCH   1  12
BRANCH  11  26
HETATM   26  S1  UNL     1     174.650 187.665 268.591  1.00  0.00    -0.105 SA
BRANCH  26  27
HETATM   27  C21 UNL     1     173.605 186.561 269.604  1.00  0.00     0.119 C 
BRANCH  27  28
HETATM   28  C22 UNL     1     174.381 185.354 270.046  1.00  0.00    -0.049 A 
HETATM   29  C23 UNL     1     175.786 185.352 269.996  1.00  0.00     0.008 A 
HETATM   30  C24 UNL     1     176.503 184.235 270.436  1.00  0.00     0.001 A 
HETATM   31  C25 UNL     1     175.824 183.113 270.920  1.00  0.00     0.000 A 
HETATM   32  C26 UNL     1     174.428 183.105 270.965  1.00  0.00     0.001 A 
HETATM   33  C27 UNL     1     173.706 184.220 270.529  1.00  0.00     0.008 A 
ENDBRANCH  27  28
ENDBRANCH  26  27
ENDBRANCH  11  26
TORSDOF 10
ENDMDL
MODEL 8
REMARK VINA RESULT:      -7.1      9.727     14.505
REMARK  10 active torsions:
REMARK  status: ('A' for Active; 'I' for Inactive)
REMARK    1  A    between atoms: C2_2  and  C3_3 
REMARK    2  A    between atoms: C3_3  and  N1_4 
REMARK    3  A    between atoms: C8_9  and  C9_10 
REMARK    4  A    between atoms: C9_10  and  C10_11 
REMARK    5  A    between atoms: C10_11  and  N2_12 
REMARK    6  A    between atoms: N2_12  and  C11_13 
REMARK    7  A    between atoms: C11_13  and  C12_14 
REMARK    8  A    between atoms: C20_24  and  S1_25 
REMARK    9  A    between atoms: S1_25  and  C21_26 
REMARK   10  A    between atoms: C21_26  and  C22_27 
ROOT
HETATM    1  C12 UNL     1     173.237 184.826 269.543  1.00  0.00     0.006 A 
HETATM    2  C13 UNL     1     173.598 184.195 268.342  1.00  0.00     0.025 A 
HETATM    3  C14 UNL     1     174.929 184.210 267.909  1.00  0.00    -0.005 A 
HETATM    4  C15 UNL     1     175.314 183.579 266.717  1.00  0.00     0.032 A 
HETATM    5  C16 UNL     1     176.654 183.601 266.314  1.00  0.00     0.011 A 
HETATM    6 BR1  UNL     1     177.178 182.741 264.693  1.00  0.00    -0.051 Br
HETATM    7  C17 UNL     1     177.611 184.254 267.099  1.00  0.00     0.021 A 
HETATM    8  C18 UNL     1     177.234 184.886 268.289  1.00  0.00     0.034 A 
HETATM    9  C19 UNL     1     175.896 184.866 268.697  1.00  0.00     0.068 A 
HETATM   10  N3  UNL     1     175.526 185.479 269.851  1.00  0.00    -0.241 NA
HETATM   11  C20 UNL     1     174.239 185.490 270.287  1.00  0.00     0.102 A 
ENDROOT
BRANCH   1  12
HETATM   12  C11 UNL     1     171.805 184.756 270.018  1.00  0.00     0.311 C 
BRANCH  12  13
HETATM   13  N2  UNL     1     171.123 186.025 269.745  1.00  0.00     0.087 N 
HETATM   14  H21 UNL     1     170.130 185.924 270.061  1.00  0.00     0.316 HD
BRANCH  13  15
HETATM   15  C10 UNL     1     171.126 186.349 268.306  1.00  0.00     0.270 C 
BRANCH  15  16
HETATM   16  C9  UNL     1     170.977 187.866 268.101  1.00  0.00     0.034 C 
BRANCH  16  17
HETATM   17  C8  UNL     1     171.958 188.454 267.051  1.00  0.00    -0.010 C 
HETATM   18  C5  UNL     1     172.235 189.955 267.252  1.00  0.00     0.035 C 
HETATM   19  C4  UNL     1     173.024 190.236 268.549  1.00  0.00     0.272 C 
HETATM   20  N1  UNL     1     173.860 189.088 268.987  1.00  0.00     0.088 N 
HETATM   21  C6  UNL     1     174.417 188.362 267.829  1.00  0.00     0.272 C 
HETATM   22  C7  UNL     1     173.296 187.671 267.030  1.00  0.00     0.035 C 
BRANCH  20  23
HETATM   23  C3  UNL     1     174.950 189.527 269.887  1.00  0.00     0.272 C 
BRANCH  23  24
HETATM   24  C2  UNL     1     174.648 190.902 270.496  1.00  0.00     0.026 C 
HETATM   25  C1  UNL     1     175.888 191.790 270.502  1.00  0.00     0.007 C 
ENDBRANCH  23  24
ENDBRANCH  20  23
ENDBRANCH  16  17
ENDBRANCH  15  16
ENDBRANCH  13  15
ENDBRANCH  12  13
ENDBRANCH   1  12
BRANCH  11  26
HETATM   26  S1  UNL     1     173.874 186.348 271.826  1.00  0.00    -0.105 SA
BRANCH  26  27
HETATM   27  C21 UNL     1     174.286 184.934 272.906  1.00  0.00     0.119 C 
BRANCH  27  28
HETATM   28  C22 UNL     1     175.418 185.283 273.829  1.00  0.00    -0.049 A 
HETATM   29  C23 UNL     1     176.535 185.991 273.351  1.00  0.00     0.008 A 
HETATM   30  C24 UNL     1     177.572 186.337 274.222  1.00  0.00     0.001 A 
HETATM   31  C25 UNL     1     177.505 185.975 275.570  1.00  0.00     0.000 A 
HETATM   32  C26 UNL     1     176.402 185.265 276.050  1.00  0.00     0.001 A 
HETATM   33  C27 UNL     1     175.361 184.917 275.184  1.00  0.00     0.008 A 
ENDBRANCH  27  28
ENDBRANCH  26  27
ENDBRANCH  11  26
TORSDOF 10
ENDMDL
MODEL 9
REMARK VINA RESULT:      -7.1      8.751     13.381
REMARK  10 active torsions:
REMARK  status: ('A' for Active; 'I' for Inactive)
REMARK    1  A    between atoms: C2_2  and  C3_3 
REMARK    2  A    between atoms: C3_3  and  N1_4 
REMARK    3  A    between atoms: C8_9  and  C9_10 
REMARK    4  A    between atoms: C9_10  and  C10_11 
REMARK    5  A    between atoms: C10_11  and  N2_12 
REMARK    6  A    between atoms: N2_12  and  C11_13 
REMARK    7  A    between atoms: C11_13  and  C12_14 
REMARK    8  A    between atoms: C20_24  and  S1_25 
REMARK    9  A    between atoms: S1_25  and  C21_26 
REMARK   10  A    between atoms: C21_26  and  C22_27 
ROOT
HETATM    1  C12 UNL     1     173.251 185.287 272.596  1.00  0.00     0.006 A 
HETATM    2  C13 UNL     1     174.291 184.854 273.435  1.00  0.00     0.025 A 
HETATM    3  C14 UNL     1     175.026 185.779 274.184  1.00  0.00    -0.005 A 
HETATM    4  C15 UNL     1     176.063 185.369 275.035  1.00  0.00     0.032 A 
HETATM    5  C16 UNL     1     176.774 186.316 275.779  1.00  0.00     0.011 A 
HETATM    6 BR1  UNL     1     178.184 185.756 276.938  1.00  0.00    -0.051 Br
HETATM    7  C17 UNL     1     176.453 187.675 275.676  1.00  0.00     0.021 A 
HETATM    8  C18 UNL     1     175.420 188.091 274.829  1.00  0.00     0.034 A 
HETATM    9  C19 UNL     1     174.705 187.149 274.082  1.00  0.00     0.068 A 
HETATM   10  N3  UNL     1     173.702 187.550 273.259  1.00  0.00    -0.241 NA
HETATM   11  C20 UNL     1     172.982 186.672 272.511  1.00  0.00     0.102 A 
ENDROOT
BRANCH   1  12
HETATM   12  C11 UNL     1     172.438 184.268 271.835  1.00  0.00     0.311 C 
BRANCH  12  13
HETATM   13  N2  UNL     1     173.274 183.114 271.489  1.00  0.00     0.087 N 
HETATM   14  H21 UNL     1     174.065 183.081 272.174  1.00  0.00     0.316 HD
BRANCH  13  15
HETATM   15  C10 UNL     1     173.834 183.234 270.130  1.00  0.00     0.270 C 
BRANCH  15  16
HETATM   16  C9  UNL     1     175.358 183.021 270.162  1.00  0.00     0.034 C 
BRANCH  16  17
HETATM   17  C8  UNL     1     176.174 184.341 270.134  1.00  0.00    -0.010 C 
HETATM   18  C5  UNL     1     177.428 184.261 269.245  1.00  0.00     0.035 C 
HETATM   19  C4  UNL     1     177.076 184.127 267.747  1.00  0.00     0.272 C 
HETATM   20  N1  UNL     1     175.750 184.702 267.403  1.00  0.00     0.088 N 
HETATM   21  C6  UNL     1     175.465 185.906 268.208  1.00  0.00     0.272 C 
HETATM   22  C7  UNL     1     175.293 185.539 269.694  1.00  0.00     0.035 C 
BRANCH  20  23
HETATM   23  C3  UNL     1     175.657 185.019 265.961  1.00  0.00     0.272 C 
BRANCH  23  24
HETATM   24  C2  UNL     1     176.584 184.120 265.133  1.00  0.00     0.026 C 
HETATM   25  C1  UNL     1     176.303 184.257 263.640  1.00  0.00     0.007 C 
ENDBRANCH  23  24
ENDBRANCH  20  23
ENDBRANCH  16  17
ENDBRANCH  15  16
ENDBRANCH  13  15
ENDBRANCH  12  13
ENDBRANCH   1  12
BRANCH  11  26
HETATM   26  S1  UNL     1     171.688 187.330 271.449  1.00  0.00    -0.105 SA
BRANCH  26  27
HETATM   27  C21 UNL     1     172.421 188.997 271.305  1.00  0.00     0.119 C 
BRANCH  27  28
HETATM   28  C22 UNL     1     173.197 189.126 270.027  1.00  0.00    -0.049 A 
HETATM   29  C23 UNL     1     172.542 189.062 268.785  1.00  0.00     0.008 A 
HETATM   30  C24 UNL     1     173.268 189.211 267.599  1.00  0.00     0.001 A 
HETATM   31  C25 UNL     1     174.649 189.419 267.645  1.00  0.00     0.000 A 
HETATM   32  C26 UNL     1     175.308 189.476 268.875  1.00  0.00     0.001 A 
HETATM   33  C27 UNL     1     174.587 189.329 270.064  1.00  0.00     0.008 A 
ENDBRANCH  27  28
ENDBRANCH  26  27
ENDBRANCH  11  26
TORSDOF 10
ENDMDL
