REMARK  9 active torsions:
REMARK  status: ('A' for Active; 'I' for Inactive)
REMARK    1  A    between atoms: N2_7  and  C6_8 
REMARK    2  A    between atoms: C6_8  and  C7_9 
REMARK    3  A    between atoms: C7_9  and  N3_10 
REMARK    4  A    between atoms: N3_10  and  C8_11 
REMARK    5  A    between atoms: C8_11  and  C9_12 
REMARK    6  A    between atoms: C13_16  and  C14_17 
REMARK    7  A    between atoms: C23_27  and  S1_28 
REMARK    8  A    between atoms: S1_28  and  C24_29 
REMARK    9  A    between atoms: C24_29  and  C25_30 
ROOT
HETATM    1  C9  UNL     1      -0.231   0.394   0.533  1.00  0.00     0.006 A 
HETATM    2  C10 UNL     1      -0.848   1.216  -0.427  1.00  0.00     0.025 A 
HETATM    3  C11 UNL     1      -1.686   0.661  -1.401  1.00  0.00    -0.006 A 
HETATM    4  C12 UNL     1      -2.321   1.464  -2.361  1.00  0.00     0.026 A 
HETATM    5  C13 UNL     1      -3.165   0.885  -3.330  1.00  0.00    -0.025 A 
HETATM    6  C20 UNL     1      -3.366  -0.507  -3.316  1.00  0.00     0.014 A 
HETATM    7  C21 UNL     1      -2.728  -1.309  -2.366  1.00  0.00     0.033 A 
HETATM    8  C22 UNL     1      -1.887  -0.732  -1.411  1.00  0.00     0.068 A 
HETATM    9  N4  UNL     1      -1.271  -1.514  -0.487  1.00  0.00    -0.241 NA
HETATM   10  C23 UNL     1      -0.465  -1.000   0.481  1.00  0.00     0.102 A 
ENDROOT
BRANCH   1  11
HETATM   11  C8  UNL     1       0.654   1.028   1.583  1.00  0.00     0.311 C 
BRANCH  11  12
HETATM   12  N3  UNL     1       1.995   0.432   1.594  1.00  0.00     0.089 N 
HETATM   13  H16 UNL     1       2.489   0.791   2.445  1.00  0.00     0.316 HD
BRANCH  12  14
HETATM   14  C7  UNL     1       2.779   0.825   0.415  1.00  0.00     0.300 C 
BRANCH  14  15
HETATM   15  C6  UNL     1       4.150   0.148   0.455  1.00  0.00     0.302 C 
BRANCH  15  16
HETATM   16  N2  UNL     1       3.980  -1.318   0.556  1.00  0.00     0.093 N 
HETATM   17  C3  UNL     1       5.007  -1.934   1.416  1.00  0.00     0.302 C 
HETATM   18  C2  UNL     1       4.680  -3.418   1.617  1.00  0.00     0.302 C 
HETATM   19  N1  UNL     1       4.446  -4.147   0.341  1.00  0.00     0.087 N 
HETATM   20  C1  UNL     1       3.145  -4.842   0.336  1.00  0.00     0.310 C 
HETATM   21  C4  UNL     1       4.613  -3.314  -0.870  1.00  0.00     0.302 C 
HETATM   22  C5  UNL     1       3.846  -1.978  -0.770  1.00  0.00     0.302 C 
ENDBRANCH  15  16
ENDBRANCH  14  15
ENDBRANCH  12  14
ENDBRANCH  11  12
ENDBRANCH   1  11
BRANCH  10  23
HETATM   23  S1  UNL     1       0.286  -2.149   1.647  1.00  0.00    -0.105 SA
BRANCH  23  24
HETATM   24  C24 UNL     1      -1.224  -2.370   2.651  1.00  0.00     0.119 C 
BRANCH  24  25
HETATM   25  C25 UNL     1      -1.393  -1.227   3.611  1.00  0.00    -0.049 A 
HETATM   26  C26 UNL     1      -2.433  -0.299   3.442  1.00  0.00     0.008 A 
HETATM   27  C27 UNL     1      -2.590   0.756   4.348  1.00  0.00     0.001 A 
HETATM   28  C28 UNL     1      -1.709   0.891   5.425  1.00  0.00     0.000 A 
HETATM   29  C29 UNL     1      -0.666  -0.026   5.594  1.00  0.00     0.001 A 
HETATM   30  C30 UNL     1      -0.509  -1.082   4.693  1.00  0.00     0.008 A 
ENDBRANCH  24  25
ENDBRANCH  23  24
ENDBRANCH  10  23
BRANCH   5  31
HETATM   31  C14 UNL     1      -3.840   1.732  -4.350  1.00  0.00    -0.026 A 
HETATM   32  C15 UNL     1      -4.364   2.991  -4.006  1.00  0.00     0.012 A 
HETATM   33  C16 UNL     1      -5.011   3.776  -4.966  1.00  0.00     0.001 A 
HETATM   34  C17 UNL     1      -5.145   3.314  -6.277  1.00  0.00     0.000 A 
HETATM   35  C18 UNL     1      -4.617   2.072  -6.634  1.00  0.00     0.001 A 
HETATM   36  C19 UNL     1      -3.980   1.279  -5.675  1.00  0.00     0.012 A 
ENDBRANCH   5  31
TORSDOF 9
