MODEL 1
REMARK VINA RESULT:      -7.2      0.000      0.000
REMARK  8 active torsions:
REMARK  status: ('A' for Active; 'I' for Inactive)
REMARK    1  A    between atoms: C_5  and  S_19 
REMARK    2  A    between atoms: C_6  and  C_8 
REMARK    3  A    between atoms: C_8  and  N_9 
REMARK    4  A    between atoms: N_9  and  C_10 
REMARK    5  A    between atoms: C_10  and  C_11 
REMARK    6  A    between atoms: C_11  and  N_12 
REMARK    7  A    between atoms: S_19  and  C_26 
REMARK    8  A    between atoms: C_20  and  C_26 
ROOT
HETATM    1  C           1     174.675 184.380 286.377  0.00  0.00     0.089 A 
HETATM    2  C           1     174.917 184.658 285.041  0.00  0.00     0.018 A 
HETATM    3  N           1     173.760 185.032 287.127  0.00  0.00    -0.360 N 
ATOM      4  HN          1     173.609 184.802 288.109  1.00  0.00     0.166 HD
HETATM    5  C           1     173.055 186.005 286.509  0.00  0.00     0.077 A 
HETATM    6  C           1     173.224 186.354 285.179  0.00  0.00     0.003 A 
HETATM    7  C           1     174.175 185.665 284.434  0.00  0.00     0.013 A 
ENDROOT
BRANCH   6   8
HETATM    8  C           1     172.407 187.445 284.561  0.00  0.00     0.307 C 
BRANCH   8   9
HETATM    9  N           1     173.256 188.562 284.246  0.00  0.00     0.089 N 
HETATM   10  H           1     173.011 189.353 284.842  0.00  0.00     0.316 HD
BRANCH   9  11
HETATM   11  C           1     173.027 188.912 282.870  0.00  0.00     0.300 C 
BRANCH  11  12
HETATM   12  C           1     174.092 188.264 281.996  0.00  0.00     0.302 C 
BRANCH  12  13
HETATM   13  N           1     173.529 187.935 280.715  0.00  0.00     0.093 N 
HETATM   14  C           1     174.596 187.293 279.929  0.00  0.00     0.302 C 
HETATM   15  C           1     174.079 186.653 278.623  0.00  0.00     0.302 C 
HETATM   16  N           1     172.988 185.688 278.848  0.00  0.00     0.087 N 
HETATM   17  C           1     172.444 185.362 277.557  0.00  0.00     0.310 C 
HETATM   18  C           1     171.920 186.331 279.635  0.00  0.00     0.302 C 
HETATM   19  C           1     172.437 186.970 280.940  0.00  0.00     0.302 C 
ENDBRANCH  12  13
ENDBRANCH  11  12
ENDBRANCH   9  11
ENDBRANCH   8   9
ENDBRANCH   6   8
BRANCH   5  20
HETATM   20  S           1     171.814 186.908 287.479  0.00  0.00    -0.107 SA
BRANCH  20  21
HETATM   21  C           1     173.015 187.499 288.705  0.00  0.00     0.122 C 
BRANCH  21  22
HETATM   22  C           1     172.567 187.100 290.076  0.00  0.00    -0.049 A 
HETATM   23  C           1     171.714 187.932 290.800  0.00  0.00     0.008 A 
HETATM   24  C           1     171.297 187.559 292.078  0.00  0.00     0.001 A 
HETATM   25  C           1     171.733 186.355 292.631  0.00  0.00     0.000 A 
HETATM   26  C           1     172.586 185.523 291.906  0.00  0.00     0.001 A 
HETATM   27  C           1     173.003 185.896 290.628  0.00  0.00     0.008 A 
ENDBRANCH  21  22
ENDBRANCH  20  21
ENDBRANCH   5  20
TORSDOF 8
ENDMDL
MODEL 2
REMARK VINA RESULT:      -7.1      3.259      5.703
REMARK  8 active torsions:
REMARK  status: ('A' for Active; 'I' for Inactive)
REMARK    1  A    between atoms: C_5  and  S_19 
REMARK    2  A    between atoms: C_6  and  C_8 
REMARK    3  A    between atoms: C_8  and  N_9 
REMARK    4  A    between atoms: N_9  and  C_10 
REMARK    5  A    between atoms: C_10  and  C_11 
REMARK    6  A    between atoms: C_11  and  N_12 
REMARK    7  A    between atoms: S_19  and  C_26 
REMARK    8  A    between atoms: C_20  and  C_26 
ROOT
HETATM    1  C           1     173.357 189.228 283.506  0.00  0.00     0.089 A 
HETATM    2  C           1     172.750 189.578 282.311  0.00  0.00     0.018 A 
HETATM    3  N           1     174.268 188.237 283.625  0.00  0.00    -0.360 N 
ATOM      4  HN          1     174.694 188.005 284.522  1.00  0.00     0.166 HD
HETATM    5  C           1     174.586 187.569 282.494  0.00  0.00     0.077 A 
HETATM    6  C           1     174.034 187.847 281.254  0.00  0.00     0.003 A 
HETATM    7  C           1     173.099 188.872 281.164  0.00  0.00     0.013 A 
ENDROOT
BRANCH   6   8
HETATM    8  C           1     174.434 187.064 280.042  0.00  0.00     0.307 C 
BRANCH   8   9
HETATM    9  N           1     173.323 186.268 279.596  0.00  0.00     0.089 N 
HETATM   10  H           1     173.445 185.306 279.914  0.00  0.00     0.316 HD
BRANCH   9  11
HETATM   11  C           1     173.311 186.299 278.159  0.00  0.00     0.300 C 
BRANCH  11  12
HETATM   12  C           1     174.627 186.873 277.651  0.00  0.00     0.302 C 
BRANCH  12  13
HETATM   13  N           1     174.675 186.772 276.218  0.00  0.00     0.093 N 
HETATM   14  C           1     175.933 187.404 275.785  0.00  0.00     0.302 C 
HETATM   15  C           1     176.252 187.150 274.296  0.00  0.00     0.302 C 
HETATM   16  N           1     176.280 185.718 273.949  0.00  0.00     0.087 N 
HETATM   17  C           1     176.339 185.635 272.515  0.00  0.00     0.310 C 
HETATM   18  C           1     175.020 185.086 274.383  0.00  0.00     0.302 C 
HETATM   19  C           1     174.701 185.339 275.871  0.00  0.00     0.302 C 
ENDBRANCH  12  13
ENDBRANCH  11  12
ENDBRANCH   9  11
ENDBRANCH   8   9
ENDBRANCH   6   8
BRANCH   5  20
HETATM   20  S           1     175.806 186.230 282.607  0.00  0.00    -0.107 SA
BRANCH  20  21
HETATM   21  C           1     174.551 184.927 282.760  0.00  0.00     0.122 C 
BRANCH  21  22
HETATM   22  C           1     174.028 184.901 284.162  0.00  0.00    -0.049 A 
HETATM   23  C           1     174.891 184.629 285.223  0.00  0.00     0.008 A 
HETATM   24  C           1     174.403 184.604 286.530  0.00  0.00     0.001 A 
HETATM   25  C           1     173.052 184.850 286.775  0.00  0.00     0.000 A 
HETATM   26  C           1     172.190 185.122 285.713  0.00  0.00     0.001 A 
HETATM   27  C           1     172.677 185.147 284.407  0.00  0.00     0.008 A 
ENDBRANCH  21  22
ENDBRANCH  20  21
ENDBRANCH   5  20
TORSDOF 8
ENDMDL
MODEL 3
REMARK VINA RESULT:      -7.0      2.568      4.893
REMARK  8 active torsions:
REMARK  status: ('A' for Active; 'I' for Inactive)
REMARK    1  A    between atoms: C_5  and  S_19 
REMARK    2  A    between atoms: C_6  and  C_8 
REMARK    3  A    between atoms: C_8  and  N_9 
REMARK    4  A    between atoms: N_9  and  C_10 
REMARK    5  A    between atoms: C_10  and  C_11 
REMARK    6  A    between atoms: C_11  and  N_12 
REMARK    7  A    between atoms: S_19  and  C_26 
REMARK    8  A    between atoms: C_20  and  C_26 
ROOT
HETATM    1  C           1     174.307 188.866 282.998  0.00  0.00     0.089 A 
HETATM    2  C           1     173.971 189.152 281.684  0.00  0.00     0.018 A 
HETATM    3  N           1     174.311 187.620 283.519  0.00  0.00    -0.360 N 
ATOM      4  HN          1     174.563 187.447 284.493  1.00  0.00     0.166 HD
HETATM    5  C           1     173.965 186.615 282.686  0.00  0.00     0.077 A 
HETATM    6  C           1     173.615 186.800 281.358  0.00  0.00     0.003 A 
HETATM    7  C           1     173.620 188.096 280.851  0.00  0.00     0.013 A 
ENDROOT
BRANCH   6   8
HETATM    8  C           1     173.242 185.638 280.492  0.00  0.00     0.307 C 
BRANCH   8   9
HETATM    9  N           1     172.156 186.013 279.626  0.00  0.00     0.089 N 
HETATM   10  H           1     171.269 185.833 280.098  0.00  0.00     0.316 HD
BRANCH   9  11
HETATM   11  C           1     172.241 185.203 278.442  0.00  0.00     0.300 C 
BRANCH  11  12
HETATM   12  C           1     172.738 186.051 277.279  0.00  0.00     0.302 C 
BRANCH  12  13
HETATM   13  N           1     174.091 185.685 276.962  0.00  0.00     0.093 N 
HETATM   14  C           1     174.152 185.489 275.503  0.00  0.00     0.302 C 
HETATM   15  C           1     175.595 185.342 274.975  0.00  0.00     0.302 C 
HETATM   16  N           1     176.464 186.470 275.353  0.00  0.00     0.087 N 
HETATM   17  C           1     177.811 186.092 275.018  0.00  0.00     0.310 C 
HETATM   18  C           1     176.404 186.666 276.813  0.00  0.00     0.302 C 
HETATM   19  C           1     174.961 186.814 277.341  0.00  0.00     0.302 C 
ENDBRANCH  12  13
ENDBRANCH  11  12
ENDBRANCH   9  11
ENDBRANCH   8   9
ENDBRANCH   6   8
BRANCH   5  20
HETATM   20  S           1     173.957 184.923 283.343  0.00  0.00    -0.107 SA
BRANCH  20  21
HETATM   21  C           1     174.935 185.353 284.812  0.00  0.00     0.122 C 
BRANCH  21  22
HETATM   22  C           1     174.044 185.378 286.015  0.00  0.00    -0.049 A 
HETATM   23  C           1     172.688 185.081 285.884  0.00  0.00     0.008 A 
HETATM   24  C           1     171.859 185.104 287.006  0.00  0.00     0.001 A 
HETATM   25  C           1     172.386 185.425 288.257  0.00  0.00     0.000 A 
HETATM   26  C           1     173.742 185.722 288.386  0.00  0.00     0.001 A 
HETATM   27  C           1     174.572 185.699 287.265  0.00  0.00     0.008 A 
ENDBRANCH  21  22
ENDBRANCH  20  21
ENDBRANCH   5  20
TORSDOF 8
ENDMDL
MODEL 4
REMARK VINA RESULT:      -6.9      5.466     12.879
REMARK  8 active torsions:
REMARK  status: ('A' for Active; 'I' for Inactive)
REMARK    1  A    between atoms: C_5  and  S_19 
REMARK    2  A    between atoms: C_6  and  C_8 
REMARK    3  A    between atoms: C_8  and  N_9 
REMARK    4  A    between atoms: N_9  and  C_10 
REMARK    5  A    between atoms: C_10  and  C_11 
REMARK    6  A    between atoms: C_11  and  N_12 
REMARK    7  A    between atoms: S_19  and  C_26 
REMARK    8  A    between atoms: C_20  and  C_26 
ROOT
HETATM    1  C           1     178.075 186.467 274.792  0.00  0.00     0.089 A 
HETATM    2  C           1     177.881 185.704 275.932  0.00  0.00     0.018 A 
HETATM    3  N           1     177.073 186.896 273.995  0.00  0.00    -0.360 N 
ATOM      4  HN          1     177.254 187.456 273.161  1.00  0.00     0.166 HD
HETATM    5  C           1     175.820 186.547 274.357  0.00  0.00     0.077 A 
HETATM    6  C           1     175.525 185.788 275.479  0.00  0.00     0.003 A 
HETATM    7  C           1     176.579 185.361 276.280  0.00  0.00     0.013 A 
ENDROOT
BRANCH   6   8
HETATM    8  C           1     174.110 185.438 275.819  0.00  0.00     0.307 C 
BRANCH   8   9
HETATM    9  N           1     173.565 186.438 276.698  0.00  0.00     0.089 N 
HETATM   10  H           1     174.220 187.216 276.772  0.00  0.00     0.316 HD
BRANCH   9  11
HETATM   11  C           1     173.388 185.835 277.991  0.00  0.00     0.300 C 
BRANCH  11  12
HETATM   12  C           1     173.522 186.900 279.071  0.00  0.00     0.302 C 
BRANCH  12  13
HETATM   13  N           1     173.824 186.273 280.329  0.00  0.00     0.093 N 
HETATM   14  C           1     174.925 187.040 280.938  0.00  0.00     0.302 C 
HETATM   15  C           1     175.193 186.647 282.406  0.00  0.00     0.302 C 
HETATM   16  N           1     173.995 186.752 283.257  0.00  0.00     0.087 N 
HETATM   17  C           1     174.319 186.131 284.514  0.00  0.00     0.310 C 
HETATM   18  C           1     172.894 185.984 282.649  0.00  0.00     0.302 C 
HETATM   19  C           1     172.625 186.378 281.181  0.00  0.00     0.302 C 
ENDBRANCH  12  13
ENDBRANCH  11  12
ENDBRANCH   9  11
ENDBRANCH   8   9
ENDBRANCH   6   8
BRANCH   5  20
HETATM   20  S           1     174.442 187.102 273.315  0.00  0.00    -0.107 SA
BRANCH  20  21
HETATM   21  C           1     175.341 186.834 271.761  0.00  0.00     0.122 C 
BRANCH  21  22
HETATM   22  C           1     175.313 185.379 271.413  0.00  0.00    -0.049 A 
HETATM   23  C           1     176.448 184.766 270.884  0.00  0.00     0.008 A 
HETATM   24  C           1     176.421 183.409 270.559  0.00  0.00     0.001 A 
HETATM   25  C           1     175.258 182.666 270.763  0.00  0.00     0.000 A 
HETATM   26  C           1     174.123 183.280 271.292  0.00  0.00     0.001 A 
HETATM   27  C           1     174.150 184.636 271.617  0.00  0.00     0.008 A 
ENDBRANCH  21  22
ENDBRANCH  20  21
ENDBRANCH   5  20
TORSDOF 8
ENDMDL
MODEL 5
REMARK VINA RESULT:      -6.9      0.749      1.381
REMARK  8 active torsions:
REMARK  status: ('A' for Active; 'I' for Inactive)
REMARK    1  A    between atoms: C_5  and  S_19 
REMARK    2  A    between atoms: C_6  and  C_8 
REMARK    3  A    between atoms: C_8  and  N_9 
REMARK    4  A    between atoms: N_9  and  C_10 
REMARK    5  A    between atoms: C_10  and  C_11 
REMARK    6  A    between atoms: C_11  and  N_12 
REMARK    7  A    between atoms: S_19  and  C_26 
REMARK    8  A    between atoms: C_20  and  C_26 
ROOT
HETATM    1  C           1     174.576 184.277 286.392  0.00  0.00     0.089 A 
HETATM    2  C           1     174.983 184.579 285.103  0.00  0.00     0.018 A 
HETATM    3  N           1     173.678 185.008 287.088  0.00  0.00    -0.360 N 
ATOM      4  HN          1     173.402 184.757 288.037  1.00  0.00     0.166 HD
HETATM    5  C           1     173.163 186.088 286.461  0.00  0.00     0.077 A 
HETATM    6  C           1     173.506 186.470 285.174  0.00  0.00     0.003 A 
HETATM    7  C           1     174.435 185.697 284.484  0.00  0.00     0.013 A 
ENDROOT
BRANCH   6   8
HETATM    8  C           1     172.894 187.681 284.542  0.00  0.00     0.307 C 
BRANCH   8   9
HETATM    9  N           1     173.607 188.006 283.336  0.00  0.00     0.089 N 
HETATM   10  H           1     174.056 188.916 283.443  0.00  0.00     0.316 HD
BRANCH   9  11
HETATM   11  C           1     172.651 188.067 282.265  0.00  0.00     0.300 C 
BRANCH  11  12
HETATM   12  C           1     172.670 186.756 281.490  0.00  0.00     0.302 C 
BRANCH  12  13
HETATM   13  N           1     172.809 187.030 280.086  0.00  0.00     0.093 N 
HETATM   14  C           1     174.228 186.828 279.747  0.00  0.00     0.302 C 
HETATM   15  C           1     174.491 186.836 278.226  0.00  0.00     0.302 C 
HETATM   16  N           1     173.670 185.855 277.496  0.00  0.00     0.087 N 
HETATM   17  C           1     173.830 186.136 276.094  0.00  0.00     0.310 C 
HETATM   18  C           1     172.250 186.057 277.834  0.00  0.00     0.302 C 
HETATM   19  C           1     171.987 186.049 279.355  0.00  0.00     0.302 C 
ENDBRANCH  12  13
ENDBRANCH  11  12
ENDBRANCH   9  11
ENDBRANCH   8   9
ENDBRANCH   6   8
BRANCH   5  20
HETATM   20  S           1     171.951 187.099 287.358  0.00  0.00    -0.107 SA
BRANCH  20  21
HETATM   21  C           1     173.124 187.583 288.656  0.00  0.00     0.122 C 
BRANCH  21  22
HETATM   22  C           1     172.568 187.211 289.995  0.00  0.00    -0.049 A 
HETATM   23  C           1     172.957 186.019 290.605  0.00  0.00     0.008 A 
HETATM   24  C           1     172.439 185.673 291.853  0.00  0.00     0.001 A 
HETATM   25  C           1     171.530 186.519 292.490  0.00  0.00     0.000 A 
HETATM   26  C           1     171.142 187.711 291.879  0.00  0.00     0.001 A 
HETATM   27  C           1     171.660 188.057 290.631  0.00  0.00     0.008 A 
ENDBRANCH  21  22
ENDBRANCH  20  21
ENDBRANCH   5  20
TORSDOF 8
ENDMDL
MODEL 6
REMARK VINA RESULT:      -6.7      2.459      8.475
REMARK  8 active torsions:
REMARK  status: ('A' for Active; 'I' for Inactive)
REMARK    1  A    between atoms: C_5  and  S_19 
REMARK    2  A    between atoms: C_6  and  C_8 
REMARK    3  A    between atoms: C_8  and  N_9 
REMARK    4  A    between atoms: N_9  and  C_10 
REMARK    5  A    between atoms: C_10  and  C_11 
REMARK    6  A    between atoms: C_11  and  N_12 
REMARK    7  A    between atoms: S_19  and  C_26 
REMARK    8  A    between atoms: C_20  and  C_26 
ROOT
HETATM    1  C           1     175.674 186.437 282.306  0.00  0.00     0.089 A 
HETATM    2  C           1     175.666 185.142 282.798  0.00  0.00     0.018 A 
HETATM    3  N           1     174.815 187.399 282.706  0.00  0.00    -0.360 N 
ATOM      4  HN          1     174.850 188.343 282.321  1.00  0.00     0.166 HD
HETATM    5  C           1     173.908 187.048 283.643  0.00  0.00     0.077 A 
HETATM    6  C           1     173.821 185.780 284.195  0.00  0.00     0.003 A 
HETATM    7  C           1     174.720 184.811 283.762  0.00  0.00     0.013 A 
ENDROOT
BRANCH   6   8
HETATM    8  C           1     172.788 185.461 285.230  0.00  0.00     0.307 C 
BRANCH   8   9
HETATM    9  N           1     173.406 184.773 286.331  0.00  0.00     0.089 N 
HETATM   10  H           1     173.191 183.777 286.273  0.00  0.00     0.316 HD
BRANCH   9  11
HETATM   11  C           1     172.859 185.311 287.547  0.00  0.00     0.300 C 
BRANCH  11  12
HETATM   12  C           1     173.457 186.687 287.809  0.00  0.00     0.302 C 
BRANCH  12  13
HETATM   13  N           1     173.279 187.032 289.193  0.00  0.00     0.093 N 
HETATM   14  C           1     171.987 187.732 289.298  0.00  0.00     0.302 C 
HETATM   15  C           1     171.533 187.943 290.758  0.00  0.00     0.302 C 
HETATM   16  N           1     171.474 186.689 291.529  0.00  0.00     0.087 N 
HETATM   17  C           1     171.284 187.053 292.907  0.00  0.00     0.310 C 
HETATM   18  C           1     172.767 185.988 291.424  0.00  0.00     0.302 C 
HETATM   19  C           1     173.220 185.777 289.964  0.00  0.00     0.302 C 
ENDBRANCH  12  13
ENDBRANCH  11  12
ENDBRANCH   9  11
ENDBRANCH   8   9
ENDBRANCH   6   8
BRANCH   5  20
HETATM   20  S           1     172.733 188.310 284.212  0.00  0.00    -0.107 SA
BRANCH  20  21
HETATM   21  C           1     172.217 188.768 282.532  0.00  0.00     0.122 C 
BRANCH  21  22
HETATM   22  C           1     171.700 190.173 282.535  0.00  0.00    -0.049 A 
HETATM   23  C           1     170.537 190.487 283.239  0.00  0.00     0.008 A 
HETATM   24  C           1     170.056 191.796 283.241  0.00  0.00     0.001 A 
HETATM   25  C           1     170.737 192.791 282.539  0.00  0.00     0.000 A 
HETATM   26  C           1     171.899 192.476 281.836  0.00  0.00     0.001 A 
HETATM   27  C           1     172.381 191.168 281.834  0.00  0.00     0.008 A 
ENDBRANCH  21  22
ENDBRANCH  20  21
ENDBRANCH   5  20
TORSDOF 8
ENDMDL
MODEL 7
REMARK VINA RESULT:      -6.6     11.283     15.103
REMARK  8 active torsions:
REMARK  status: ('A' for Active; 'I' for Inactive)
REMARK    1  A    between atoms: C_5  and  S_19 
REMARK    2  A    between atoms: C_6  and  C_8 
REMARK    3  A    between atoms: C_8  and  N_9 
REMARK    4  A    between atoms: N_9  and  C_10 
REMARK    5  A    between atoms: C_10  and  C_11 
REMARK    6  A    between atoms: C_11  and  N_12 
REMARK    7  A    between atoms: S_19  and  C_26 
REMARK    8  A    between atoms: C_20  and  C_26 
ROOT
HETATM    1  C           1     175.666 184.884 275.640  0.00  0.00     0.089 A 
HETATM    2  C           1     176.834 185.586 275.391  0.00  0.00     0.018 A 
HETATM    3  N           1     174.582 184.918 274.833  0.00  0.00    -0.360 N 
ATOM      4  HN          1     173.737 184.388 275.049  1.00  0.00     0.166 HD
HETATM    5  C           1     174.675 185.688 273.727  0.00  0.00     0.077 A 
HETATM    6  C           1     175.800 186.424 273.393  0.00  0.00     0.003 A 
HETATM    7  C           1     176.899 186.370 274.244  0.00  0.00     0.013 A 
ENDROOT
BRANCH   6   8
HETATM    8  C           1     175.832 187.257 272.150  0.00  0.00     0.307 C 
BRANCH   8   9
HETATM    9  N           1     175.882 188.650 272.505  0.00  0.00     0.089 N 
HETATM   10  H           1     175.578 188.764 273.472  0.00  0.00     0.316 HD
BRANCH   9  11
HETATM   11  C           1     174.984 189.357 271.634  0.00  0.00     0.300 C 
BRANCH  11  12
HETATM   12  C           1     175.781 190.075 270.554  0.00  0.00     0.302 C 
BRANCH  12  13
HETATM   13  N           1     175.017 190.115 269.337  0.00  0.00     0.093 N 
HETATM   14  C           1     175.031 188.752 268.777  0.00  0.00     0.302 C 
HETATM   15  C           1     174.042 188.573 267.605  0.00  0.00     0.302 C 
HETATM   16  N           1     172.660 188.942 267.957  0.00  0.00     0.087 N 
HETATM   17  C           1     171.908 188.965 266.732  0.00  0.00     0.310 C 
HETATM   18  C           1     172.646 190.306 268.518  0.00  0.00     0.302 C 
HETATM   19  C           1     173.634 190.485 269.689  0.00  0.00     0.302 C 
ENDBRANCH  12  13
ENDBRANCH  11  12
ENDBRANCH   9  11
ENDBRANCH   8   9
ENDBRANCH   6   8
BRANCH   5  20
HETATM   20  S           1     173.243 185.762 272.614  0.00  0.00    -0.107 SA
BRANCH  20  21
HETATM   21  C           1     173.490 184.080 271.977  0.00  0.00     0.122 C 
BRANCH  21  22
HETATM   22  C           1     174.540 184.100 270.910  0.00  0.00    -0.049 A 
HETATM   23  C           1     174.335 184.836 269.743  0.00  0.00     0.008 A 
HETATM   24  C           1     175.314 184.854 268.749  0.00  0.00     0.001 A 
HETATM   25  C           1     176.497 184.136 268.922  0.00  0.00     0.000 A 
HETATM   26  C           1     176.702 183.401 270.089  0.00  0.00     0.001 A 
HETATM   27  C           1     175.723 183.382 271.083  0.00  0.00     0.008 A 
ENDBRANCH  21  22
ENDBRANCH  20  21
ENDBRANCH   5  20
TORSDOF 8
ENDMDL
MODEL 8
REMARK VINA RESULT:      -6.6      1.835      2.860
REMARK  8 active torsions:
REMARK  status: ('A' for Active; 'I' for Inactive)
REMARK    1  A    between atoms: C_5  and  S_19 
REMARK    2  A    between atoms: C_6  and  C_8 
REMARK    3  A    between atoms: C_8  and  N_9 
REMARK    4  A    between atoms: N_9  and  C_10 
REMARK    5  A    between atoms: C_10  and  C_11 
REMARK    6  A    between atoms: C_11  and  N_12 
REMARK    7  A    between atoms: S_19  and  C_26 
REMARK    8  A    between atoms: C_20  and  C_26 
ROOT
HETATM    1  C           1     175.233 185.662 287.787  0.00  0.00     0.089 A 
HETATM    2  C           1     175.586 185.071 286.584  0.00  0.00     0.018 A 
HETATM    3  N           1     174.095 186.366 287.974  0.00  0.00    -0.360 N 
ATOM      4  HN          1     173.868 186.789 288.874  1.00  0.00     0.166 HD
HETATM    5  C           1     173.273 186.480 286.908  0.00  0.00     0.077 A 
HETATM    6  C           1     173.538 185.925 285.667  0.00  0.00     0.003 A 
HETATM    7  C           1     174.718 185.206 285.505  0.00  0.00     0.013 A 
ENDROOT
BRANCH   6   8
HETATM    8  C           1     172.580 186.093 284.529  0.00  0.00     0.307 C 
BRANCH   8   9
HETATM    9  N           1     172.987 185.259 283.430  0.00  0.00     0.089 N 
HETATM   10  H           1     173.959 184.978 283.560  0.00  0.00     0.316 HD
BRANCH   9  11
HETATM   11  C           1     172.871 186.036 282.225  0.00  0.00     0.300 C 
BRANCH  11  12
HETATM   12  C           1     174.028 187.022 282.142  0.00  0.00     0.302 C 
BRANCH  12  13
HETATM   13  N           1     173.609 188.194 281.423  0.00  0.00     0.093 N 
HETATM   14  C           1     172.247 187.930 280.927  0.00  0.00     0.302 C 
HETATM   15  C           1     171.560 189.188 280.353  0.00  0.00     0.302 C 
HETATM   16  N           1     171.523 190.309 281.309  0.00  0.00     0.087 N 
HETATM   17  C           1     171.092 191.469 280.577  0.00  0.00     0.310 C 
HETATM   18  C           1     172.886 190.574 281.805  0.00  0.00     0.302 C 
HETATM   19  C           1     173.572 189.316 282.379  0.00  0.00     0.302 C 
ENDBRANCH  12  13
ENDBRANCH  11  12
ENDBRANCH   9  11
ENDBRANCH   8   9
ENDBRANCH   6   8
BRANCH   5  20
HETATM   20  S           1     171.732 187.417 287.114  0.00  0.00    -0.107 SA
BRANCH  20  21
HETATM   21  C           1     170.962 186.163 288.178  0.00  0.00     0.122 C 
BRANCH  21  22
HETATM   22  C           1     171.221 186.499 289.613  0.00  0.00    -0.049 A 
HETATM   23  C           1     171.480 185.483 290.532  0.00  0.00     0.008 A 
HETATM   24  C           1     171.721 185.798 291.870  0.00  0.00     0.001 A 
HETATM   25  C           1     171.701 187.128 292.288  0.00  0.00     0.000 A 
HETATM   26  C           1     171.442 188.144 291.368  0.00  0.00     0.001 A 
HETATM   27  C           1     171.202 187.830 290.031  0.00  0.00     0.008 A 
ENDBRANCH  21  22
ENDBRANCH  20  21
ENDBRANCH   5  20
TORSDOF 8
ENDMDL
MODEL 9
REMARK VINA RESULT:      -6.6      3.662     11.213
REMARK  8 active torsions:
REMARK  status: ('A' for Active; 'I' for Inactive)
REMARK    1  A    between atoms: C_5  and  S_19 
REMARK    2  A    between atoms: C_6  and  C_8 
REMARK    3  A    between atoms: C_8  and  N_9 
REMARK    4  A    between atoms: N_9  and  C_10 
REMARK    5  A    between atoms: C_10  and  C_11 
REMARK    6  A    between atoms: C_11  and  N_12 
REMARK    7  A    between atoms: S_19  and  C_26 
REMARK    8  A    between atoms: C_20  and  C_26 
ROOT
HETATM    1  C           1     170.974 186.920 276.561  0.00  0.00     0.089 A 
HETATM    2  C           1     170.394 186.803 277.815  0.00  0.00     0.018 A 
HETATM    3  N           1     172.308 186.922 276.347  0.00  0.00    -0.360 N 
ATOM      4  HN          1     172.700 187.011 275.409  1.00  0.00     0.166 HD
HETATM    5  C           1     173.095 186.799 277.437  0.00  0.00     0.077 A 
HETATM    6  C           1     172.610 186.676 278.730  0.00  0.00     0.003 A 
HETATM    7  C           1     171.232 186.678 278.918  0.00  0.00     0.013 A 
ENDROOT
BRANCH   6   8
HETATM    8  C           1     173.544 186.544 279.892  0.00  0.00     0.307 C 
BRANCH   8   9
HETATM    9  N           1     173.049 185.539 280.794  0.00  0.00     0.089 N 
HETATM   10  H           1     172.148 185.198 280.461  0.00  0.00     0.316 HD
BRANCH   9  11
HETATM   11  C           1     172.883 186.152 282.084  0.00  0.00     0.300 C 
BRANCH  11  12
HETATM   12  C           1     174.160 186.885 282.468  0.00  0.00     0.302 C 
BRANCH  12  13
HETATM   13  N           1     174.367 186.780 283.887  0.00  0.00     0.093 N 
HETATM   14  C           1     173.084 187.106 284.533  0.00  0.00     0.302 C 
HETATM   15  C           1     173.073 186.790 286.044  0.00  0.00     0.302 C 
HETATM   16  N           1     173.429 185.392 286.341  0.00  0.00     0.087 N 
HETATM   17  C           1     173.620 185.302 287.764  0.00  0.00     0.310 C 
HETATM   18  C           1     174.713 185.065 285.695  0.00  0.00     0.302 C 
HETATM   19  C           1     174.724 185.381 284.184  0.00  0.00     0.302 C 
ENDBRANCH  12  13
ENDBRANCH  11  12
ENDBRANCH   9  11
ENDBRANCH   8   9
ENDBRANCH   6   8
BRANCH   5  20
HETATM   20  S           1     174.895 186.796 277.196  0.00  0.00    -0.107 SA
BRANCH  20  21
HETATM   21  C           1     174.904 185.201 276.329  0.00  0.00     0.122 C 
BRANCH  21  22
HETATM   22  C           1     175.400 185.396 274.930  0.00  0.00    -0.049 A 
HETATM   23  C           1     176.636 186.002 274.707  0.00  0.00     0.008 A 
HETATM   24  C           1     177.097 186.184 273.403  0.00  0.00     0.001 A 
HETATM   25  C           1     176.323 185.761 272.323  0.00  0.00     0.000 A 
HETATM   26  C           1     175.087 185.154 272.547  0.00  0.00     0.001 A 
HETATM   27  C           1     174.625 184.972 273.851  0.00  0.00     0.008 A 
ENDBRANCH  21  22
ENDBRANCH  20  21
ENDBRANCH   5  20
TORSDOF 8
ENDMDL
