REMARK  9 active torsions:
REMARK  status: ('A' for Active; 'I' for Inactive)
REMARK    1  A    between atoms: C2_2  and  N1_3 
REMARK    2  A    between atoms: C7_8  and  C8_9 
REMARK    3  A    between atoms: C8_9  and  C9_10 
REMARK    4  A    between atoms: C9_10  and  N2_11 
REMARK    5  A    between atoms: N2_11  and  C10_12 
REMARK    6  A    between atoms: C10_12  and  C11_13 
REMARK    7  A    between atoms: C19_23  and  S1_24 
REMARK    8  A    between atoms: S1_24  and  C20_25 
REMARK    9  A    between atoms: C20_25  and  C21_26 
ROOT
HETATM    1  C11 UNL     1      -0.109   1.398  -1.352  1.00  0.00     0.006 A 
HETATM    2  C12 UNL     1      -0.137   2.799  -1.422  1.00  0.00     0.025 A 
HETATM    3  C13 UNL     1      -1.315   3.467  -1.773  1.00  0.00    -0.005 A 
HETATM    4  C14 UNL     1      -1.369   4.867  -1.829  1.00  0.00     0.032 A 
HETATM    5  C15 UNL     1      -2.567   5.509  -2.168  1.00  0.00     0.011 A 
HETATM    6 BR1  UNL     1      -2.644   7.416  -2.229  1.00  0.00    -0.051 Br
HETATM    7  C16 UNL     1      -3.710   4.755  -2.455  1.00  0.00     0.021 A 
HETATM    8  C17 UNL     1      -3.660   3.359  -2.407  1.00  0.00     0.034 A 
HETATM    9  C18 UNL     1      -2.468   2.711  -2.065  1.00  0.00     0.068 A 
HETATM   10  N3  UNL     1      -2.422   1.355  -2.000  1.00  0.00    -0.241 NA
HETATM   11  C19 UNL     1      -1.291   0.682  -1.657  1.00  0.00     0.102 A 
ENDROOT
BRANCH   1  12
HETATM   12  C10 UNL     1       1.175   0.723  -0.932  1.00  0.00     0.311 C 
BRANCH  12  13
HETATM   13  N2  UNL     1       1.476   1.076   0.458  1.00  0.00     0.087 N 
HETATM   14  H19 UNL     1       0.742   0.710   1.098  1.00  0.00     0.316 HD
BRANCH  13  15
HETATM   15  C9  UNL     1       2.820   0.670   0.896  1.00  0.00     0.270 C 
BRANCH  15  16
HETATM   16  C8  UNL     1       3.102  -0.858   0.882  1.00  0.00     0.034 C 
BRANCH  16  17
HETATM   17  C7  UNL     1       2.435  -1.746   1.971  1.00  0.00    -0.010 C 
HETATM   18  C4  UNL     1       0.998  -2.185   1.609  1.00  0.00     0.035 C 
HETATM   19  C3  UNL     1       0.230  -2.631   2.860  1.00  0.00     0.272 C 
HETATM   20  N1  UNL     1       0.109  -1.554   3.878  1.00  0.00     0.088 N 
HETATM   21  C5  UNL     1       1.230  -0.581   3.893  1.00  0.00     0.272 C 
HETATM   22  C6  UNL     1       2.550  -1.198   3.415  1.00  0.00     0.035 C 
BRANCH  20  23
HETATM   23  C2  UNL     1      -1.199  -0.865   3.813  1.00  0.00     0.268 C 
HETATM   24  C1  UNL     1      -2.241  -1.634   4.619  1.00  0.00     0.037 C 
ENDBRANCH  20  23
ENDBRANCH  16  17
ENDBRANCH  15  16
ENDBRANCH  13  15
ENDBRANCH  12  13
ENDBRANCH   1  12
BRANCH  11  25
HETATM   25  S1  UNL     1      -1.381  -1.111  -1.567  1.00  0.00    -0.105 SA
BRANCH  25  26
HETATM   26  C20 UNL     1      -0.781  -1.355  -3.270  1.00  0.00     0.119 C 
BRANCH  26  27
HETATM   27  C21 UNL     1      -0.511  -2.813  -3.506  1.00  0.00    -0.049 A 
HETATM   28  C22 UNL     1      -1.577  -3.726  -3.573  1.00  0.00     0.008 A 
HETATM   29  C23 UNL     1      -1.329  -5.088  -3.771  1.00  0.00     0.001 A 
HETATM   30  C24 UNL     1      -0.018  -5.548  -3.910  1.00  0.00     0.000 A 
HETATM   31  C25 UNL     1       1.049  -4.645  -3.861  1.00  0.00     0.001 A 
HETATM   32  C26 UNL     1       0.805  -3.283  -3.653  1.00  0.00     0.008 A 
ENDBRANCH  26  27
ENDBRANCH  25  26
ENDBRANCH  11  25
TORSDOF 9
