MODEL 1
REMARK VINA RESULT:      -7.9      0.000      0.000
REMARK  10 active torsions:
REMARK  status: ('A' for Active; 'I' for Inactive)
REMARK    1  A    between atoms: C_2  and  C_18 
REMARK    2  A    between atoms: C_5  and  S_9 
REMARK    3  A    between atoms: C_6  and  C_8 
REMARK    4  A    between atoms: C_8  and  N_17 
REMARK    5  A    between atoms: S_9  and  C_10 
REMARK    6  A    between atoms: C_10  and  C_11 
REMARK    7  A    between atoms: N_17  and  C_19 
REMARK    8  A    between atoms: C_19  and  C_20 
REMARK    9  A    between atoms: C_20  and  N_21 
REMARK   10  A    between atoms: C_30  and  N_33 
ROOT
HETATM    1  C           1     174.583 186.758 280.135  0.00  0.00     0.101 A 
HETATM    2  C           1     173.504 186.235 280.830  0.00  0.00    -0.010 A 
HETATM    3  N           1     174.569 187.018 278.810  0.00  0.00    -0.359 N 
ATOM      4  HN          1     175.383 187.403 278.330  1.00  0.00     0.166 HD
HETATM    5  C           1     173.422 186.742 278.151  0.00  0.00     0.077 A 
HETATM    6  C           1     172.291 186.219 278.758  0.00  0.00     0.004 A 
HETATM    7  C           1     172.336 185.962 280.124  0.00  0.00     0.025 A 
ENDROOT
BRANCH   6   8
HETATM    8  C           1     171.053 185.938 277.964  0.00  0.00     0.311 C 
BRANCH   8   9
HETATM    9  N           1     169.960 186.708 278.492  0.00  0.00     0.089 N 
HETATM   10  H           1     169.136 186.112 278.581  0.00  0.00     0.316 HD
BRANCH   9  11
HETATM   11  C           1     169.684 187.770 277.562  0.00  0.00     0.300 C 
BRANCH  11  12
HETATM   12  C           1     170.249 189.077 278.101  0.00  0.00     0.302 C 
BRANCH  12  13
HETATM   13  N           1     169.996 189.163 279.514  0.00  0.00     0.093 N 
HETATM   14  C           1     171.266 189.550 280.155  0.00  0.00     0.302 C 
HETATM   15  C           1     171.098 189.932 281.641  0.00  0.00     0.302 C 
HETATM   16  N           1     170.100 190.994 281.854  0.00  0.00     0.087 N 
HETATM   17  C           1     169.868 191.074 283.271  0.00  0.00     0.310 C 
HETATM   18  C           1     168.830 190.607 281.213  0.00  0.00     0.302 C 
HETATM   19  C           1     168.997 190.225 279.727  0.00  0.00     0.302 C 
ENDBRANCH  12  13
ENDBRANCH  11  12
ENDBRANCH   9  11
ENDBRANCH   8   9
ENDBRANCH   6   8
BRANCH   5  20
HETATM   20  S           1     173.358 187.076 276.368  0.00  0.00    -0.107 SA
BRANCH  20  21
HETATM   21  C           1     174.150 185.506 275.918  0.00  0.00     0.119 C 
BRANCH  21  22
HETATM   22  C           1     175.569 185.761 275.512  0.00  0.00    -0.049 A 
HETATM   23  C           1     176.601 185.568 276.431  0.00  0.00     0.008 A 
HETATM   24  C           1     177.923 185.806 276.054  0.00  0.00     0.001 A 
HETATM   25  C           1     178.212 186.235 274.759  0.00  0.00     0.000 A 
HETATM   26  C           1     177.180 186.427 273.841  0.00  0.00     0.001 A 
HETATM   27  C           1     175.858 186.189 274.217  0.00  0.00     0.008 A 
ENDBRANCH  21  22
ENDBRANCH  20  21
ENDBRANCH   5  20
BRANCH   2  28
HETATM   28  C           1     173.582 186.000 282.144  0.00  0.00    -0.025 A 
HETATM   29  C           1     172.681 186.613 283.016  0.00  0.00     0.014 A 
HETATM   30  C           1     172.762 186.369 284.387  0.00  0.00     0.030 A 
HETATM   31  C           1     173.743 185.513 284.886  0.00  0.00     0.029 A 
HETATM   32  C           1     174.644 184.901 284.014  0.00  0.00     0.030 A 
HETATM   33  C           1     174.563 185.144 282.643  0.00  0.00     0.014 A 
BRANCH  31  34
HETATM   34  N           1     173.818 185.292 286.130  0.00  0.00    -0.390 N 
HETATM   35  C           1     175.123 185.315 286.805  0.00  0.00     0.149 C 
HETATM   36  C           1     172.597 185.009 286.899  0.00  0.00     0.149 C 
ENDBRANCH  31  34
ENDBRANCH   2  28
TORSDOF 10
ENDMDL
MODEL 2
REMARK VINA RESULT:      -7.5      2.262      8.097
REMARK  10 active torsions:
REMARK  status: ('A' for Active; 'I' for Inactive)
REMARK    1  A    between atoms: C_2  and  C_18 
REMARK    2  A    between atoms: C_5  and  S_9 
REMARK    3  A    between atoms: C_6  and  C_8 
REMARK    4  A    between atoms: C_8  and  N_17 
REMARK    5  A    between atoms: S_9  and  C_10 
REMARK    6  A    between atoms: C_10  and  C_11 
REMARK    7  A    between atoms: N_17  and  C_19 
REMARK    8  A    between atoms: C_19  and  C_20 
REMARK    9  A    between atoms: C_20  and  N_21 
REMARK   10  A    between atoms: C_30  and  N_33 
ROOT
HETATM    1  C           1     173.817 189.194 283.252  0.00  0.00     0.101 A 
HETATM    2  C           1     172.791 189.265 282.323  0.00  0.00    -0.010 A 
HETATM    3  N           1     174.686 188.164 283.335  0.00  0.00    -0.359 N 
ATOM      4  HN          1     175.429 188.145 284.033  1.00  0.00     0.166 HD
HETATM    5  C           1     174.521 187.159 282.447  0.00  0.00     0.077 A 
HETATM    6  C           1     173.526 187.140 281.482  0.00  0.00     0.004 A 
HETATM    7  C           1     172.646 188.215 281.421  0.00  0.00     0.025 A 
ENDROOT
BRANCH   6   8
HETATM    8  C           1     173.403 185.991 280.529  0.00  0.00     0.311 C 
BRANCH   8   9
HETATM    9  N           1     172.285 186.213 279.652  0.00  0.00     0.089 N 
HETATM   10  H           1     171.417 186.027 280.155  0.00  0.00     0.316 HD
BRANCH   9  11
HETATM   11  C           1     172.405 185.298 278.550  0.00  0.00     0.300 C 
BRANCH  11  12
HETATM   12  C           1     172.878 186.049 277.314  0.00  0.00     0.302 C 
BRANCH  12  13
HETATM   13  N           1     174.233 185.674 277.012  0.00  0.00     0.093 N 
HETATM   14  C           1     174.309 185.469 275.555  0.00  0.00     0.302 C 
HETATM   15  C           1     175.757 185.311 275.043  0.00  0.00     0.302 C 
HETATM   16  N           1     176.629 186.435 275.425  0.00  0.00     0.087 N 
HETATM   17  C           1     177.977 186.048 275.108  0.00  0.00     0.310 C 
HETATM   18  C           1     176.553 186.640 276.883  0.00  0.00     0.302 C 
HETATM   19  C           1     175.105 186.798 277.395  0.00  0.00     0.302 C 
ENDBRANCH  12  13
ENDBRANCH  11  12
ENDBRANCH   9  11
ENDBRANCH   8   9
ENDBRANCH   6   8
BRANCH   5  20
HETATM   20  S           1     175.667 185.754 282.522  0.00  0.00    -0.107 SA
BRANCH  20  21
HETATM   21  C           1     174.400 184.589 283.101  0.00  0.00     0.119 C 
BRANCH  21  22
HETATM   22  C           1     174.019 184.926 284.509  0.00  0.00    -0.049 A 
HETATM   23  C           1     172.693 185.234 284.816  0.00  0.00     0.008 A 
HETATM   24  C           1     172.338 185.548 286.128  0.00  0.00     0.001 A 
HETATM   25  C           1     173.306 185.552 287.131  0.00  0.00     0.000 A 
HETATM   26  C           1     174.631 185.243 286.824  0.00  0.00     0.001 A 
HETATM   27  C           1     174.987 184.929 285.512  0.00  0.00     0.008 A 
ENDBRANCH  21  22
ENDBRANCH  20  21
ENDBRANCH   5  20
BRANCH   2  28
HETATM   28  C           1     171.963 190.314 282.293  0.00  0.00    -0.025 A 
HETATM   29  C           1     172.291 191.440 281.538  0.00  0.00     0.014 A 
HETATM   30  C           1     171.428 192.535 281.506  0.00  0.00     0.030 A 
HETATM   31  C           1     170.236 192.504 282.230  0.00  0.00     0.029 A 
HETATM   32  C           1     169.908 191.378 282.985  0.00  0.00     0.030 A 
HETATM   33  C           1     170.771 190.283 283.016  0.00  0.00     0.014 A 
BRANCH  31  34
HETATM   34  N           1     169.452 193.498 282.202  0.00  0.00    -0.390 N 
HETATM   35  C           1     169.070 194.168 283.452  0.00  0.00     0.149 C 
HETATM   36  C           1     168.924 193.980 280.917  0.00  0.00     0.149 C 
ENDBRANCH  31  34
ENDBRANCH   2  28
TORSDOF 10
ENDMDL
MODEL 3
REMARK VINA RESULT:      -7.5      2.119      3.941
REMARK  10 active torsions:
REMARK  status: ('A' for Active; 'I' for Inactive)
REMARK    1  A    between atoms: C_2  and  C_18 
REMARK    2  A    between atoms: C_5  and  S_9 
REMARK    3  A    between atoms: C_6  and  C_8 
REMARK    4  A    between atoms: C_8  and  N_17 
REMARK    5  A    between atoms: S_9  and  C_10 
REMARK    6  A    between atoms: C_10  and  C_11 
REMARK    7  A    between atoms: N_17  and  C_19 
REMARK    8  A    between atoms: C_19  and  C_20 
REMARK    9  A    between atoms: C_20  and  N_21 
REMARK   10  A    between atoms: C_30  and  N_33 
ROOT
HETATM    1  C           1     174.659 186.821 280.149  0.00  0.00     0.101 A 
HETATM    2  C           1     173.616 186.221 280.837  0.00  0.00    -0.010 A 
HETATM    3  N           1     174.634 187.083 278.824  0.00  0.00    -0.359 N 
ATOM      4  HN          1     175.422 187.525 278.350  1.00  0.00     0.166 HD
HETATM    5  C           1     173.513 186.730 278.158  0.00  0.00     0.077 A 
HETATM    6  C           1     172.418 186.127 278.758  0.00  0.00     0.004 A 
HETATM    7  C           1     172.474 185.869 280.124  0.00  0.00     0.025 A 
ENDROOT
BRANCH   6   8
HETATM    8  C           1     171.207 185.763 277.956  0.00  0.00     0.311 C 
BRANCH   8   9
HETATM    9  N           1     170.064 186.470 278.467  0.00  0.00     0.089 N 
HETATM   10  H           1     169.219 185.928 278.281  0.00  0.00     0.316 HD
BRANCH   9  11
HETATM   11  C           1     169.986 187.730 277.780  0.00  0.00     0.300 C 
BRANCH  11  12
HETATM   12  C           1     169.094 187.587 276.554  0.00  0.00     0.302 C 
BRANCH  12  13
HETATM   13  N           1     169.896 187.677 275.364  0.00  0.00     0.093 N 
HETATM   14  C           1     169.123 187.050 274.277  0.00  0.00     0.302 C 
HETATM   15  C           1     169.739 187.293 272.882  0.00  0.00     0.302 C 
HETATM   16  N           1     169.935 188.722 272.582  0.00  0.00     0.087 N 
HETATM   17  C           1     170.728 188.793 271.384  0.00  0.00     0.310 C 
HETATM   18  C           1     170.708 189.349 273.669  0.00  0.00     0.302 C 
HETATM   19  C           1     170.093 189.106 275.064  0.00  0.00     0.302 C 
ENDBRANCH  12  13
ENDBRANCH  11  12
ENDBRANCH   9  11
ENDBRANCH   8   9
ENDBRANCH   6   8
BRANCH   5  20
HETATM   20  S           1     173.435 187.065 276.376  0.00  0.00    -0.107 SA
BRANCH  20  21
HETATM   21  C           1     174.234 185.500 275.920  0.00  0.00     0.119 C 
BRANCH  21  22
HETATM   22  C           1     175.651 185.763 275.512  0.00  0.00    -0.049 A 
HETATM   23  C           1     175.935 186.181 274.212  0.00  0.00     0.008 A 
HETATM   24  C           1     177.255 186.426 273.832  0.00  0.00     0.001 A 
HETATM   25  C           1     178.288 186.253 274.752  0.00  0.00     0.000 A 
HETATM   26  C           1     178.004 185.836 276.051  0.00  0.00     0.001 A 
HETATM   27  C           1     176.684 185.591 276.432  0.00  0.00     0.008 A 
ENDBRANCH  21  22
ENDBRANCH  20  21
ENDBRANCH   5  20
BRANCH   2  28
HETATM   28  C           1     173.703 185.988 282.150  0.00  0.00    -0.025 A 
HETATM   29  C           1     174.760 185.231 282.655  0.00  0.00     0.014 A 
HETATM   30  C           1     174.850 184.987 284.025  0.00  0.00     0.030 A 
HETATM   31  C           1     173.884 185.500 284.890  0.00  0.00     0.029 A 
HETATM   32  C           1     172.827 186.257 284.385  0.00  0.00     0.030 A 
HETATM   33  C           1     172.737 186.501 283.015  0.00  0.00     0.014 A 
BRANCH  31  34
HETATM   34  N           1     173.966 185.278 286.134  0.00  0.00    -0.390 N 
HETATM   35  C           1     175.275 185.307 286.802  0.00  0.00     0.149 C 
HETATM   36  C           1     172.751 184.991 286.910  0.00  0.00     0.149 C 
ENDBRANCH  31  34
ENDBRANCH   2  28
TORSDOF 10
ENDMDL
MODEL 4
REMARK VINA RESULT:      -7.4      8.066     13.615
REMARK  10 active torsions:
REMARK  status: ('A' for Active; 'I' for Inactive)
REMARK    1  A    between atoms: C_2  and  C_18 
REMARK    2  A    between atoms: C_5  and  S_9 
REMARK    3  A    between atoms: C_6  and  C_8 
REMARK    4  A    between atoms: C_8  and  N_17 
REMARK    5  A    between atoms: S_9  and  C_10 
REMARK    6  A    between atoms: C_10  and  C_11 
REMARK    7  A    between atoms: N_17  and  C_19 
REMARK    8  A    between atoms: C_19  and  C_20 
REMARK    9  A    between atoms: C_20  and  N_21 
REMARK   10  A    between atoms: C_30  and  N_33 
ROOT
HETATM    1  C           1     176.424 184.139 268.279  0.00  0.00     0.101 A 
HETATM    2  C           1     176.072 184.725 267.074  0.00  0.00    -0.010 A 
HETATM    3  N           1     176.101 184.651 269.487  0.00  0.00    -0.359 N 
ATOM      4  HN          1     176.378 184.193 270.355  1.00  0.00     0.166 HD
HETATM    5  C           1     175.392 185.801 269.487  0.00  0.00     0.077 A 
HETATM    6  C           1     174.993 186.461 268.334  0.00  0.00     0.004 A 
HETATM    7  C           1     175.342 185.909 267.106  0.00  0.00     0.025 A 
ENDROOT
BRANCH   6   8
HETATM    8  C           1     174.208 187.734 268.411  0.00  0.00     0.311 C 
BRANCH   8   9
HETATM    9  N           1     174.952 188.794 267.786  0.00  0.00     0.089 N 
HETATM   10  H           1     175.952 188.615 267.891  0.00  0.00     0.316 HD
BRANCH   9  11
HETATM   11  C           1     174.612 190.020 268.456  0.00  0.00     0.300 C 
BRANCH  11  12
HETATM   12  C           1     175.434 190.147 269.731  0.00  0.00     0.302 C 
BRANCH  12  13
HETATM   13  N           1     174.666 190.842 270.729  0.00  0.00     0.093 N 
HETATM   14  C           1     175.334 192.136 270.961  0.00  0.00     0.302 C 
HETATM   15  C           1     174.490 193.104 271.819  0.00  0.00     0.302 C 
HETATM   16  N           1     173.145 193.339 271.265  0.00  0.00     0.087 N 
HETATM   17  C           1     172.396 194.044 272.271  0.00  0.00     0.310 C 
HETATM   18  C           1     172.478 192.046 271.034  0.00  0.00     0.302 C 
HETATM   19  C           1     173.321 191.078 270.176  0.00  0.00     0.302 C 
ENDBRANCH  12  13
ENDBRANCH  11  12
ENDBRANCH   9  11
ENDBRANCH   8   9
ENDBRANCH   6   8
BRANCH   5  20
HETATM   20  S           1     174.935 186.525 271.087  0.00  0.00    -0.107 SA
BRANCH  20  21
HETATM   21  C           1     175.276 185.002 272.016  0.00  0.00     0.119 C 
BRANCH  21  22
HETATM   22  C           1     175.858 185.351 273.350  0.00  0.00    -0.049 A 
HETATM   23  C           1     177.036 186.095 273.422  0.00  0.00     0.008 A 
HETATM   24  C           1     177.579 186.421 274.666  0.00  0.00     0.001 A 
HETATM   25  C           1     176.943 186.003 275.835  0.00  0.00     0.000 A 
HETATM   26  C           1     175.765 185.260 275.762  0.00  0.00     0.001 A 
HETATM   27  C           1     175.222 184.935 274.519  0.00  0.00     0.008 A 
ENDBRANCH  21  22
ENDBRANCH  20  21
ENDBRANCH   5  20
BRANCH   2  28
HETATM   28  C           1     176.423 184.168 265.911  0.00  0.00    -0.025 A 
HETATM   29  C           1     175.990 184.730 264.709  0.00  0.00     0.014 A 
HETATM   30  C           1     176.355 184.149 263.496  0.00  0.00     0.030 A 
HETATM   31  C           1     177.153 183.005 263.482  0.00  0.00     0.029 A 
HETATM   32  C           1     177.586 182.443 264.684  0.00  0.00     0.030 A 
HETATM   33  C           1     177.221 183.024 265.897  0.00  0.00     0.014 A 
BRANCH  31  34
HETATM   34  N           1     177.484 182.477 262.381  0.00  0.00    -0.390 N 
HETATM   35  C           1     178.737 182.874 261.722  0.00  0.00     0.149 C 
HETATM   36  C           1     176.616 181.466 261.760  0.00  0.00     0.149 C 
ENDBRANCH  31  34
ENDBRANCH   2  28
TORSDOF 10
ENDMDL
MODEL 5
REMARK VINA RESULT:      -7.3      6.606     10.448
REMARK  10 active torsions:
REMARK  status: ('A' for Active; 'I' for Inactive)
REMARK    1  A    between atoms: C_2  and  C_18 
REMARK    2  A    between atoms: C_5  and  S_9 
REMARK    3  A    between atoms: C_6  and  C_8 
REMARK    4  A    between atoms: C_8  and  N_17 
REMARK    5  A    between atoms: S_9  and  C_10 
REMARK    6  A    between atoms: C_10  and  C_11 
REMARK    7  A    between atoms: N_17  and  C_19 
REMARK    8  A    between atoms: C_19  and  C_20 
REMARK    9  A    between atoms: C_20  and  N_21 
REMARK   10  A    between atoms: C_30  and  N_33 
ROOT
HETATM    1  C           1     175.436 183.355 271.058  0.00  0.00     0.101 A 
HETATM    2  C           1     175.421 184.702 271.385  0.00  0.00    -0.010 A 
HETATM    3  N           1     175.216 182.880 269.813  0.00  0.00    -0.359 N 
ATOM      4  HN          1     175.233 181.881 269.609  1.00  0.00     0.166 HD
HETATM    5  C           1     174.971 183.796 268.851  0.00  0.00     0.077 A 
HETATM    6  C           1     174.936 185.164 269.079  0.00  0.00     0.004 A 
HETATM    7  C           1     175.167 185.622 270.372  0.00  0.00     0.025 A 
ENDROOT
BRANCH   6   8
HETATM    8  C           1     174.658 186.121 267.962  0.00  0.00     0.311 C 
BRANCH   8   9
HETATM    9  N           1     175.475 187.294 268.122  0.00  0.00     0.089 N 
HETATM   10  H           1     176.025 187.211 268.978  0.00  0.00     0.316 HD
BRANCH   9  11
HETATM   11  C           1     174.596 188.427 268.227  0.00  0.00     0.300 C 
BRANCH  11  12
HETATM   12  C           1     175.262 189.513 269.062  0.00  0.00     0.302 C 
BRANCH  12  13
HETATM   13  N           1     174.586 189.630 270.325  0.00  0.00     0.093 N 
HETATM   14  C           1     173.336 188.856 270.218  0.00  0.00     0.302 C 
HETATM   15  C           1     172.622 188.674 271.575  0.00  0.00     0.302 C 
HETATM   16  N           1     173.486 188.068 272.603  0.00  0.00     0.087 N 
HETATM   17  C           1     172.791 188.184 273.856  0.00  0.00     0.310 C 
HETATM   18  C           1     174.736 188.842 272.710  0.00  0.00     0.302 C 
HETATM   19  C           1     175.450 189.025 271.354  0.00  0.00     0.302 C 
ENDBRANCH  12  13
ENDBRANCH  11  12
ENDBRANCH   9  11
ENDBRANCH   8   9
ENDBRANCH   6   8
BRANCH   5  20
HETATM   20  S           1     174.670 183.204 267.162  0.00  0.00    -0.107 SA
BRANCH  20  21
HETATM   21  C           1     176.390 182.684 266.902  0.00  0.00     0.119 C 
BRANCH  21  22
HETATM   22  C           1     176.768 182.907 265.471  0.00  0.00    -0.049 A 
HETATM   23  C           1     176.273 184.016 264.784  0.00  0.00     0.008 A 
HETATM   24  C           1     176.625 184.223 263.450  0.00  0.00     0.001 A 
HETATM   25  C           1     177.472 183.323 262.805  0.00  0.00     0.000 A 
HETATM   26  C           1     177.968 182.216 263.491  0.00  0.00     0.001 A 
HETATM   27  C           1     177.616 182.008 264.826  0.00  0.00     0.008 A 
ENDBRANCH  21  22
ENDBRANCH  20  21
ENDBRANCH   5  20
BRANCH   2  28
HETATM   28  C           1     175.647 185.108 272.638  0.00  0.00    -0.025 A 
HETATM   29  C           1     174.730 184.806 273.645  0.00  0.00     0.014 A 
HETATM   30  C           1     174.964 185.230 274.952  0.00  0.00     0.030 A 
HETATM   31  C           1     176.116 185.956 275.254  0.00  0.00     0.029 A 
HETATM   32  C           1     177.033 186.258 274.247  0.00  0.00     0.030 A 
HETATM   33  C           1     176.799 185.834 272.940  0.00  0.00     0.014 A 
BRANCH  31  34
HETATM   34  N           1     176.330 186.341 276.440  0.00  0.00    -0.390 N 
HETATM   35  C           1     175.213 186.810 277.274  0.00  0.00     0.149 C 
HETATM   36  C           1     177.695 186.321 276.984  0.00  0.00     0.149 C 
ENDBRANCH  31  34
ENDBRANCH   2  28
TORSDOF 10
ENDMDL
MODEL 6
REMARK VINA RESULT:      -7.2      2.952      8.730
REMARK  10 active torsions:
REMARK  status: ('A' for Active; 'I' for Inactive)
REMARK    1  A    between atoms: C_2  and  C_18 
REMARK    2  A    between atoms: C_5  and  S_9 
REMARK    3  A    between atoms: C_6  and  C_8 
REMARK    4  A    between atoms: C_8  and  N_17 
REMARK    5  A    between atoms: S_9  and  C_10 
REMARK    6  A    between atoms: C_10  and  C_11 
REMARK    7  A    between atoms: N_17  and  C_19 
REMARK    8  A    between atoms: C_19  and  C_20 
REMARK    9  A    between atoms: C_20  and  N_21 
REMARK   10  A    between atoms: C_30  and  N_33 
ROOT
HETATM    1  C           1     175.370 186.685 276.879  0.00  0.00     0.101 A 
HETATM    2  C           1     174.472 186.021 276.058  0.00  0.00    -0.010 A 
HETATM    3  N           1     175.115 187.009 278.165  0.00  0.00    -0.359 N 
ATOM      4  HN          1     175.800 187.500 278.740  1.00  0.00     0.166 HD
HETATM    5  C           1     173.908 186.650 278.652  0.00  0.00     0.077 A 
HETATM    6  C           1     172.944 185.983 277.910  0.00  0.00     0.004 A 
HETATM    7  C           1     173.236 185.664 276.588  0.00  0.00     0.025 A 
ENDROOT
BRANCH   6   8
HETATM    8  C           1     171.626 185.617 278.517  0.00  0.00     0.311 C 
BRANCH   8   9
HETATM    9  N           1     170.577 185.851 277.562  0.00  0.00     0.089 N 
HETATM   10  H           1     170.951 185.760 276.617  0.00  0.00     0.316 HD
BRANCH   9  11
HETATM   11  C           1     170.097 187.192 277.760  0.00  0.00     0.300 C 
BRANCH  11  12
HETATM   12  C           1     169.638 187.770 276.428  0.00  0.00     0.302 C 
BRANCH  12  13
HETATM   13  N           1     170.640 187.524 275.426  0.00  0.00     0.093 N 
HETATM   14  C           1     169.937 187.397 274.137  0.00  0.00     0.302 C 
HETATM   15  C           1     170.895 187.385 272.927  0.00  0.00     0.302 C 
HETATM   16  N           1     171.785 188.559 272.886  0.00  0.00     0.087 N 
HETATM   17  C           1     172.772 188.302 271.873  0.00  0.00     0.310 C 
HETATM   18  C           1     172.487 188.686 274.175  0.00  0.00     0.302 C 
HETATM   19  C           1     171.530 188.698 275.386  0.00  0.00     0.302 C 
ENDBRANCH  12  13
ENDBRANCH  11  12
ENDBRANCH   9  11
ENDBRANCH   8   9
ENDBRANCH   6   8
BRANCH   5  20
HETATM   20  S           1     173.523 187.064 280.376  0.00  0.00    -0.107 SA
BRANCH  20  21
HETATM   21  C           1     174.111 185.473 281.023  0.00  0.00     0.119 C 
BRANCH  21  22
HETATM   22  C           1     173.929 185.440 282.509  0.00  0.00    -0.049 A 
HETATM   23  C           1     172.756 185.938 283.077  0.00  0.00     0.008 A 
HETATM   24  C           1     172.586 185.907 284.462  0.00  0.00     0.001 A 
HETATM   25  C           1     173.587 185.378 285.276  0.00  0.00     0.000 A 
HETATM   26  C           1     174.759 184.880 284.707  0.00  0.00     0.001 A 
HETATM   27  C           1     174.929 184.910 283.322  0.00  0.00     0.008 A 
ENDBRANCH  21  22
ENDBRANCH  20  21
ENDBRANCH   5  20
BRANCH   2  28
HETATM   28  C           1     174.785 185.729 274.792  0.00  0.00    -0.025 A 
HETATM   29  C           1     176.087 185.927 274.332  0.00  0.00     0.014 A 
HETATM   30  C           1     176.413 185.623 273.011  0.00  0.00     0.030 A 
HETATM   31  C           1     175.438 185.122 272.149  0.00  0.00     0.029 A 
HETATM   32  C           1     174.136 184.924 272.609  0.00  0.00     0.030 A 
HETATM   33  C           1     173.809 185.227 273.930  0.00  0.00     0.014 A 
BRANCH  31  34
HETATM   34  N           1     175.734 184.846 270.949  0.00  0.00    -0.390 N 
HETATM   35  C           1     175.348 185.763 269.867  0.00  0.00     0.149 C 
HETATM   36  C           1     176.463 183.607 270.639  0.00  0.00     0.149 C 
ENDBRANCH  31  34
ENDBRANCH   2  28
TORSDOF 10
ENDMDL
MODEL 7
REMARK VINA RESULT:      -7.2      7.050     10.649
REMARK  10 active torsions:
REMARK  status: ('A' for Active; 'I' for Inactive)
REMARK    1  A    between atoms: C_2  and  C_18 
REMARK    2  A    between atoms: C_5  and  S_9 
REMARK    3  A    between atoms: C_6  and  C_8 
REMARK    4  A    between atoms: C_8  and  N_17 
REMARK    5  A    between atoms: S_9  and  C_10 
REMARK    6  A    between atoms: C_10  and  C_11 
REMARK    7  A    between atoms: N_17  and  C_19 
REMARK    8  A    between atoms: C_19  and  C_20 
REMARK    9  A    between atoms: C_20  and  N_21 
REMARK   10  A    between atoms: C_30  and  N_33 
ROOT
HETATM    1  C           1     175.465 183.504 271.111  0.00  0.00     0.101 A 
HETATM    2  C           1     175.536 184.839 271.474  0.00  0.00    -0.010 A 
HETATM    3  N           1     175.240 183.079 269.849  0.00  0.00    -0.359 N 
ATOM      4  HN          1     175.193 182.087 269.617  1.00  0.00     0.166 HD
HETATM    5  C           1     175.080 184.035 268.908  0.00  0.00     0.077 A 
HETATM    6  C           1     175.135 185.395 269.173  0.00  0.00     0.004 A 
HETATM    7  C           1     175.368 185.801 270.483  0.00  0.00     0.025 A 
ENDROOT
BRANCH   6   8
HETATM    8  C           1     174.949 186.399 268.078  0.00  0.00     0.311 C 
BRANCH   8   9
HETATM    9  N           1     173.634 186.974 268.174  0.00  0.00     0.089 N 
HETATM   10  H           1     173.014 186.519 267.503  0.00  0.00     0.316 HD
BRANCH   9  11
HETATM   11  C           1     173.744 188.371 267.852  0.00  0.00     0.300 C 
BRANCH  11  12
HETATM   12  C           1     174.972 188.956 268.536  0.00  0.00     0.302 C 
BRANCH  12  13
HETATM   13  N           1     174.685 190.295 268.975  0.00  0.00     0.093 N 
HETATM   14  C           1     173.276 190.314 269.406  0.00  0.00     0.302 C 
HETATM   15  C           1     172.889 191.614 270.142  0.00  0.00     0.302 C 
HETATM   16  N           1     173.758 191.903 271.297  0.00  0.00     0.087 N 
HETATM   17  C           1     173.450 193.240 271.729  0.00  0.00     0.310 C 
HETATM   18  C           1     175.167 191.884 270.866  0.00  0.00     0.302 C 
HETATM   19  C           1     175.555 190.584 270.129  0.00  0.00     0.302 C 
ENDBRANCH  12  13
ENDBRANCH  11  12
ENDBRANCH   9  11
ENDBRANCH   8   9
ENDBRANCH   6   8
BRANCH   5  20
HETATM   20  S           1     174.777 183.510 267.197  0.00  0.00    -0.107 SA
BRANCH  20  21
HETATM   21  C           1     176.457 182.864 266.963  0.00  0.00     0.119 C 
BRANCH  21  22
HETATM   22  C           1     176.834 182.965 265.518  0.00  0.00    -0.049 A 
HETATM   23  C           1     177.680 182.012 264.951  0.00  0.00     0.008 A 
HETATM   24  C           1     178.032 182.106 263.604  0.00  0.00     0.001 A 
HETATM   25  C           1     177.536 183.151 262.825  0.00  0.00     0.000 A 
HETATM   26  C           1     176.690 184.103 263.392  0.00  0.00     0.001 A 
HETATM   27  C           1     176.338 184.010 264.739  0.00  0.00     0.008 A 
ENDBRANCH  21  22
ENDBRANCH  20  21
ENDBRANCH   5  20
BRANCH   2  28
HETATM   28  C           1     175.761 185.195 272.743  0.00  0.00    -0.025 A 
HETATM   29  C           1     176.888 185.953 273.065  0.00  0.00     0.014 A 
HETATM   30  C           1     177.124 186.323 274.388  0.00  0.00     0.030 A 
HETATM   31  C           1     176.235 185.937 275.390  0.00  0.00     0.029 A 
HETATM   32  C           1     175.108 185.179 275.068  0.00  0.00     0.030 A 
HETATM   33  C           1     174.872 184.809 273.745  0.00  0.00     0.014 A 
BRANCH  31  34
HETATM   34  N           1     176.448 186.273 276.592  0.00  0.00    -0.390 N 
HETATM   35  C           1     177.797 186.144 277.162  0.00  0.00     0.149 C 
HETATM   36  C           1     175.347 186.791 277.416  0.00  0.00     0.149 C 
ENDBRANCH  31  34
ENDBRANCH   2  28
TORSDOF 10
ENDMDL
MODEL 8
REMARK VINA RESULT:      -7.1      1.768      6.240
REMARK  10 active torsions:
REMARK  status: ('A' for Active; 'I' for Inactive)
REMARK    1  A    between atoms: C_2  and  C_18 
REMARK    2  A    between atoms: C_5  and  S_9 
REMARK    3  A    between atoms: C_6  and  C_8 
REMARK    4  A    between atoms: C_8  and  N_17 
REMARK    5  A    between atoms: S_9  and  C_10 
REMARK    6  A    between atoms: C_10  and  C_11 
REMARK    7  A    between atoms: N_17  and  C_19 
REMARK    8  A    between atoms: C_19  and  C_20 
REMARK    9  A    between atoms: C_20  and  N_21 
REMARK   10  A    between atoms: C_30  and  N_33 
ROOT
HETATM    1  C           1     170.823 188.968 279.757  0.00  0.00     0.101 A 
HETATM    2  C           1     171.454 189.387 280.918  0.00  0.00    -0.010 A 
HETATM    3  N           1     171.183 187.868 279.061  0.00  0.00    -0.359 N 
ATOM      4  HN          1     170.696 187.589 278.209  1.00  0.00     0.166 HD
HETATM    5  C           1     172.222 187.155 279.550  0.00  0.00     0.077 A 
HETATM    6  C           1     172.915 187.494 280.701  0.00  0.00     0.004 A 
HETATM    7  C           1     172.521 188.632 281.397  0.00  0.00     0.025 A 
ENDROOT
BRANCH   6   8
HETATM    8  C           1     174.058 186.655 281.184  0.00  0.00     0.311 C 
BRANCH   8   9
HETATM    9  N           1     174.921 187.453 282.013  0.00  0.00     0.089 N 
HETATM   10  H           1     175.745 187.729 281.477  0.00  0.00     0.316 HD
BRANCH   9  11
HETATM   11  C           1     175.325 186.644 283.131  0.00  0.00     0.300 C 
BRANCH  11  12
HETATM   12  C           1     174.636 185.288 283.052  0.00  0.00     0.302 C 
BRANCH  12  13
HETATM   13  N           1     174.145 184.923 284.353  0.00  0.00     0.093 N 
HETATM   14  C           1     175.112 185.438 285.339  0.00  0.00     0.302 C 
HETATM   15  C           1     174.597 185.349 286.791  0.00  0.00     0.302 C 
HETATM   16  N           1     173.299 186.019 286.983  0.00  0.00     0.087 N 
HETATM   17  C           1     172.828 185.653 288.292  0.00  0.00     0.310 C 
HETATM   18  C           1     172.332 185.504 285.998  0.00  0.00     0.302 C 
HETATM   19  C           1     172.846 185.592 284.545  0.00  0.00     0.302 C 
ENDBRANCH  12  13
ENDBRANCH  11  12
ENDBRANCH   9  11
ENDBRANCH   8   9
ENDBRANCH   6   8
BRANCH   5  20
HETATM   20  S           1     172.740 185.669 278.647  0.00  0.00    -0.107 SA
BRANCH  20  21
HETATM   21  C           1     173.113 186.574 277.118  0.00  0.00     0.119 C 
BRANCH  21  22
HETATM   22  C           1     174.486 186.209 276.644  0.00  0.00    -0.049 A 
HETATM   23  C           1     174.641 185.342 275.562  0.00  0.00     0.008 A 
HETATM   24  C           1     175.920 185.002 275.120  0.00  0.00     0.001 A 
HETATM   25  C           1     177.041 185.528 275.760  0.00  0.00     0.000 A 
HETATM   26  C           1     176.886 186.395 276.841  0.00  0.00     0.001 A 
HETATM   27  C           1     175.607 186.736 277.283  0.00  0.00     0.008 A 
ENDBRANCH  21  22
ENDBRANCH  20  21
ENDBRANCH   5  20
BRANCH   2  28
HETATM   28  C           1     171.049 190.486 281.561  0.00  0.00    -0.025 A 
HETATM   29  C           1     169.823 190.493 282.227  0.00  0.00     0.014 A 
HETATM   30  C           1     169.400 191.640 282.898  0.00  0.00     0.030 A 
HETATM   31  C           1     170.202 192.781 282.903  0.00  0.00     0.029 A 
HETATM   32  C           1     171.428 192.774 282.237  0.00  0.00     0.030 A 
HETATM   33  C           1     171.851 191.627 281.567  0.00  0.00     0.014 A 
BRANCH  31  34
HETATM   34  N           1     169.818 193.822 283.512  0.00  0.00    -0.390 N 
HETATM   35  C           1     170.271 194.079 284.886  0.00  0.00     0.149 C 
HETATM   36  C           1     168.918 194.773 282.843  0.00  0.00     0.149 C 
ENDBRANCH  31  34
ENDBRANCH   2  28
TORSDOF 10
ENDMDL
MODEL 9
REMARK VINA RESULT:      -7.1      2.182      3.285
REMARK  10 active torsions:
REMARK  status: ('A' for Active; 'I' for Inactive)
REMARK    1  A    between atoms: C_2  and  C_18 
REMARK    2  A    between atoms: C_5  and  S_9 
REMARK    3  A    between atoms: C_6  and  C_8 
REMARK    4  A    between atoms: C_8  and  N_17 
REMARK    5  A    between atoms: S_9  and  C_10 
REMARK    6  A    between atoms: C_10  and  C_11 
REMARK    7  A    between atoms: N_17  and  C_19 
REMARK    8  A    between atoms: C_19  and  C_20 
REMARK    9  A    between atoms: C_20  and  N_21 
REMARK   10  A    between atoms: C_30  and  N_33 
ROOT
HETATM    1  C           1     173.509 185.251 282.774  0.00  0.00     0.101 A 
HETATM    2  C           1     173.103 186.379 283.470  0.00  0.00    -0.010 A 
HETATM    3  N           1     173.438 185.130 281.430  0.00  0.00    -0.359 N 
ATOM      4  HN          1     173.745 184.284 280.952  1.00  0.00     0.166 HD
HETATM    5  C           1     172.939 186.187 280.753  0.00  0.00     0.077 A 
HETATM    6  C           1     172.507 187.357 281.359  0.00  0.00     0.004 A 
HETATM    7  C           1     172.593 187.452 282.744  0.00  0.00     0.025 A 
ENDROOT
BRANCH   6   8
HETATM    8  C           1     171.965 188.489 280.543  0.00  0.00     0.311 C 
BRANCH   8   9
HETATM    9  N           1     171.892 189.674 281.356  0.00  0.00     0.089 N 
HETATM   10  H           1     171.909 189.410 282.342  0.00  0.00     0.316 HD
BRANCH   9  11
HETATM   11  C           1     170.649 190.332 281.059  0.00  0.00     0.300 C 
BRANCH  11  12
HETATM   12  C           1     170.116 189.833 279.723  0.00  0.00     0.302 C 
BRANCH  12  13
HETATM   13  N           1     169.399 190.892 279.066  0.00  0.00     0.093 N 
HETATM   14  C           1     168.668 191.631 280.112  0.00  0.00     0.302 C 
HETATM   15  C           1     168.054 192.951 279.600  0.00  0.00     0.302 C 
HETATM   16  N           1     169.046 193.843 278.974  0.00  0.00     0.087 N 
HETATM   17  C           1     168.313 194.900 278.332  0.00  0.00     0.310 C 
HETATM   18  C           1     169.776 193.104 277.928  0.00  0.00     0.302 C 
HETATM   19  C           1     170.391 191.784 278.439  0.00  0.00     0.302 C 
ENDBRANCH  12  13
ENDBRANCH  11  12
ENDBRANCH   9  11
ENDBRANCH   8   9
ENDBRANCH   6   8
BRANCH   5  20
HETATM   20  S           1     172.825 186.069 278.946  0.00  0.00    -0.107 SA
BRANCH  20  21
HETATM   21  C           1     174.448 186.833 278.667  0.00  0.00     0.119 C 
BRANCH  21  22
HETATM   22  C           1     175.018 186.337 277.375  0.00  0.00    -0.049 A 
HETATM   23  C           1     174.207 185.639 276.479  0.00  0.00     0.008 A 
HETATM   24  C           1     174.739 185.177 275.274  0.00  0.00     0.001 A 
HETATM   25  C           1     176.078 185.414 274.966  0.00  0.00     0.000 A 
HETATM   26  C           1     176.887 186.112 275.861  0.00  0.00     0.001 A 
HETATM   27  C           1     176.357 186.574 277.066  0.00  0.00     0.008 A 
ENDBRANCH  21  22
ENDBRANCH  20  21
ENDBRANCH   5  20
BRANCH   2  28
HETATM   28  C           1     173.199 186.436 284.801  0.00  0.00    -0.025 A 
HETATM   29  C           1     172.594 187.481 285.500  0.00  0.00     0.014 A 
HETATM   30  C           1     172.695 187.542 286.889  0.00  0.00     0.030 A 
HETATM   31  C           1     173.401 186.559 287.581  0.00  0.00     0.029 A 
HETATM   32  C           1     174.007 185.514 286.882  0.00  0.00     0.030 A 
HETATM   33  C           1     173.906 185.453 285.493  0.00  0.00     0.014 A 
BRANCH  31  34
HETATM   34  N           1     173.494 186.614 288.842  0.00  0.00    -0.390 N 
HETATM   35  C           1     174.506 185.810 289.541  0.00  0.00     0.149 C 
HETATM   36  C           1     172.586 187.480 289.608  0.00  0.00     0.149 C 
ENDBRANCH  31  34
ENDBRANCH   2  28
TORSDOF 10
ENDMDL
