MODEL 1
REMARK VINA RESULT:      -7.8      0.000      0.000
REMARK  9 active torsions:
REMARK  status: ('A' for Active; 'I' for Inactive)
REMARK    1  A    between atoms: C_4  and  S_27 
REMARK    2  A    between atoms: C_5  and  C_7 
REMARK    3  A    between atoms: C_7  and  N_8 
REMARK    4  A    between atoms: N_8  and  C_9 
REMARK    5  A    between atoms: C_9  and  C_10 
REMARK    6  A    between atoms: C_10  and  C_11 
REMARK    7  A    between atoms: N_14  and  C_17 
REMARK    8  A    between atoms: S_27  and  C_34 
REMARK    9  A    between atoms: C_28  and  C_34 
ROOT
HETATM    1  C           1     174.623 186.094 276.259  0.00  0.00    -0.005 A 
HETATM    2  C           1     175.318 186.886 277.158  0.00  0.00     0.130 A 
HETATM    3  N           1     174.883 187.165 278.407  0.00  0.00    -0.253 NA
HETATM    4  C           1     173.699 186.625 278.770  0.00  0.00     0.101 A 
HETATM    5  C           1     172.933 185.822 277.942  0.00  0.00     0.006 A 
HETATM    6  C           1     173.406 185.553 276.662  0.00  0.00     0.025 A 
HETATM    7  C           1     175.108 185.856 275.035  0.00  0.00     0.014 A 
HETATM    8  C           1     176.459 186.073 274.767  0.00  0.00     0.130 A 
HETATM    9  C           1     176.966 185.825 273.491  0.00  0.00     0.085 A 
HETATM   10  C           1     176.120 185.361 272.484  0.00  0.00     0.119 A 
HETATM   11  C           1     174.768 185.144 272.752  0.00  0.00     0.043 A 
HETATM   12  C           1     174.262 185.392 274.028  0.00  0.00     0.018 A 
HETATM   13  F           1     176.599 185.126 271.276  0.00  0.00    -0.206 F 
HETATM   14  F           1     177.260 186.512 275.721  0.00  0.00    -0.205 F 
ENDROOT
BRANCH   5  15
HETATM   15  C           1     171.627 185.258 278.412  0.00  0.00     0.308 C 
BRANCH  15  16
HETATM   16  N           1     170.583 185.643 277.503  0.00  0.00     0.087 N 
HETATM   17  H           1     170.939 185.619 276.547  0.00  0.00     0.316 HD
BRANCH  16  18
HETATM   18  C           1     170.189 186.986 277.833  0.00  0.00     0.270 C 
BRANCH  18  19
HETATM   19  C           1     169.810 187.733 276.562  0.00  0.00     0.034 C 
BRANCH  19  20
HETATM   20  C           1     170.919 187.577 275.529  0.00  0.00    -0.010 C 
HETATM   21  C           1     170.295 187.389 274.150  0.00  0.00     0.035 C 
HETATM   22  C           1     171.359 187.422 273.053  0.00  0.00     0.272 C 
HETATM   23  N           1     172.151 188.651 273.110  0.00  0.00     0.088 N 
HETATM   24  C           1     172.814 188.800 274.407  0.00  0.00     0.272 C 
HETATM   25  C           1     171.805 188.818 275.552  0.00  0.00     0.035 C 
BRANCH  23  26
HETATM   26  C           1     173.173 188.512 272.109  0.00  0.00     0.268 C 
HETATM   27  C           1     174.526 188.871 272.710  0.00  0.00     0.037 C 
ENDBRANCH  23  26
ENDBRANCH  19  20
ENDBRANCH  18  19
ENDBRANCH  16  18
ENDBRANCH  15  16
ENDBRANCH   5  15
BRANCH   4  28
HETATM   28  S           1     173.078 186.973 280.439  0.00  0.00    -0.105 SA
BRANCH  28  29
HETATM   29  C           1     174.556 186.315 281.263  0.00  0.00     0.122 C 
BRANCH  29  30
HETATM   30  C           1     174.201 185.873 282.648  0.00  0.00    -0.049 A 
HETATM   31  C           1     172.913 186.085 283.140  0.00  0.00     0.008 A 
HETATM   32  C           1     172.582 185.672 284.430  0.00  0.00     0.001 A 
HETATM   33  C           1     173.538 185.047 285.229  0.00  0.00     0.000 A 
HETATM   34  C           1     174.826 184.832 284.738  0.00  0.00     0.001 A 
HETATM   35  C           1     175.157 185.246 283.447  0.00  0.00     0.008 A 
ENDBRANCH  29  30
ENDBRANCH  28  29
ENDBRANCH   4  28
TORSDOF 9
ENDMDL
MODEL 2
REMARK VINA RESULT:      -7.7      5.029      8.999
REMARK  9 active torsions:
REMARK  status: ('A' for Active; 'I' for Inactive)
REMARK    1  A    between atoms: C_4  and  S_27 
REMARK    2  A    between atoms: C_5  and  C_7 
REMARK    3  A    between atoms: C_7  and  N_8 
REMARK    4  A    between atoms: N_8  and  C_9 
REMARK    5  A    between atoms: C_9  and  C_10 
REMARK    6  A    between atoms: C_10  and  C_11 
REMARK    7  A    between atoms: N_14  and  C_17 
REMARK    8  A    between atoms: S_27  and  C_34 
REMARK    9  A    between atoms: C_28  and  C_34 
ROOT
HETATM    1  C           1     175.139 185.394 272.529  0.00  0.00    -0.005 A 
HETATM    2  C           1     176.011 185.381 271.452  0.00  0.00     0.130 A 
HETATM    3  N           1     175.618 185.221 270.169  0.00  0.00    -0.253 NA
HETATM    4  C           1     174.293 185.069 269.956  0.00  0.00     0.101 A 
HETATM    5  C           1     173.345 185.069 270.966  0.00  0.00     0.006 A 
HETATM    6  C           1     173.780 185.235 272.277  0.00  0.00     0.025 A 
HETATM    7  C           1     175.591 185.556 273.777  0.00  0.00     0.014 A 
HETATM    8  C           1     176.865 186.080 273.994  0.00  0.00     0.130 A 
HETATM    9  C           1     177.338 186.249 275.296  0.00  0.00     0.085 A 
HETATM   10  C           1     176.535 185.892 276.380  0.00  0.00     0.119 A 
HETATM   11  C           1     175.261 185.368 276.162  0.00  0.00     0.043 A 
HETATM   12  C           1     174.789 185.199 274.861  0.00  0.00     0.018 A 
HETATM   13  F           1     176.982 186.052 277.612  0.00  0.00    -0.206 F 
HETATM   14  F           1     177.624 186.417 272.968  0.00  0.00    -0.205 F 
ENDROOT
BRANCH   5  15
HETATM   15  C           1     171.891 184.895 270.655  0.00  0.00     0.308 C 
BRANCH  15  16
HETATM   16  N           1     171.135 185.935 271.297  0.00  0.00     0.087 N 
HETATM   17  H           1     170.182 185.609 271.463  0.00  0.00     0.316 HD
BRANCH  16  18
HETATM   18  C           1     171.105 187.065 270.408  0.00  0.00     0.270 C 
BRANCH  18  19
HETATM   19  C           1     170.967 188.347 271.219  0.00  0.00     0.034 C 
BRANCH  19  20
HETATM   20  C           1     172.112 189.292 270.878  0.00  0.00    -0.010 C 
HETATM   21  C           1     171.591 190.725 270.865  0.00  0.00     0.035 C 
HETATM   22  C           1     172.735 191.728 270.720  0.00  0.00     0.272 C 
HETATM   23  N           1     173.744 191.544 271.764  0.00  0.00     0.088 N 
HETATM   24  C           1     174.304 190.192 271.734  0.00  0.00     0.272 C 
HETATM   25  C           1     173.219 189.133 271.915  0.00  0.00     0.035 C 
BRANCH  23  26
HETATM   26  C           1     174.805 192.464 271.456  0.00  0.00     0.268 C 
HETATM   27  C           1     175.793 191.801 270.505  0.00  0.00     0.037 C 
ENDBRANCH  23  26
ENDBRANCH  19  20
ENDBRANCH  18  19
ENDBRANCH  16  18
ENDBRANCH  15  16
ENDBRANCH   5  15
BRANCH   4  28
HETATM   28  S           1     173.723 184.854 268.247  0.00  0.00    -0.105 SA
BRANCH  28  29
HETATM   29  C           1     174.836 186.123 267.580  0.00  0.00     0.122 C 
BRANCH  29  30
HETATM   30  C           1     174.119 187.436 267.523  0.00  0.00    -0.049 A 
HETATM   31  C           1     174.766 188.603 267.928  0.00  0.00     0.008 A 
HETATM   32  C           1     174.098 189.826 267.873  0.00  0.00     0.001 A 
HETATM   33  C           1     172.782 189.882 267.413  0.00  0.00     0.000 A 
HETATM   34  C           1     172.135 188.715 267.007  0.00  0.00     0.001 A 
HETATM   35  C           1     172.804 187.492 267.061  0.00  0.00     0.008 A 
ENDBRANCH  29  30
ENDBRANCH  28  29
ENDBRANCH   4  28
TORSDOF 9
ENDMDL
MODEL 3
REMARK VINA RESULT:      -7.6      4.363      9.761
REMARK  9 active torsions:
REMARK  status: ('A' for Active; 'I' for Inactive)
REMARK    1  A    between atoms: C_4  and  S_27 
REMARK    2  A    between atoms: C_5  and  C_7 
REMARK    3  A    between atoms: C_7  and  N_8 
REMARK    4  A    between atoms: N_8  and  C_9 
REMARK    5  A    between atoms: C_9  and  C_10 
REMARK    6  A    between atoms: C_10  and  C_11 
REMARK    7  A    between atoms: N_14  and  C_17 
REMARK    8  A    between atoms: S_27  and  C_34 
REMARK    9  A    between atoms: C_28  and  C_34 
ROOT
HETATM    1  C           1     171.227 189.340 280.395  0.00  0.00    -0.005 A 
HETATM    2  C           1     170.537 188.897 279.277  0.00  0.00     0.130 A 
HETATM    3  N           1     170.790 187.725 278.654  0.00  0.00    -0.253 NA
HETATM    4  C           1     171.776 186.963 279.174  0.00  0.00     0.101 A 
HETATM    5  C           1     172.520 187.320 280.286  0.00  0.00     0.006 A 
HETATM    6  C           1     172.238 188.532 280.906  0.00  0.00     0.025 A 
HETATM    7  C           1     170.929 190.511 280.965  0.00  0.00     0.014 A 
HETATM    8  C           1     169.706 191.127 280.698  0.00  0.00     0.130 A 
HETATM    9  C           1     169.395 192.349 281.293  0.00  0.00     0.085 A 
HETATM   10  C           1     170.308 192.956 282.156  0.00  0.00     0.119 A 
HETATM   11  C           1     171.531 192.341 282.423  0.00  0.00     0.043 A 
HETATM   12  C           1     171.842 191.119 281.828  0.00  0.00     0.018 A 
HETATM   13  F           1     170.013 194.113 282.720  0.00  0.00    -0.206 F 
HETATM   14  F           1     168.843 190.551 279.881  0.00  0.00    -0.205 F 
ENDROOT
BRANCH   5  15
HETATM   15  C           1     173.601 186.424 280.808  0.00  0.00     0.308 C 
BRANCH  15  16
HETATM   16  N           1     174.647 187.221 281.389  0.00  0.00     0.087 N 
HETATM   17  H           1     175.390 187.358 280.703  0.00  0.00     0.316 HD
BRANCH  16  18
HETATM   18  C           1     175.166 186.503 282.521  0.00  0.00     0.270 C 
BRANCH  18  19
HETATM   19  C           1     174.528 185.122 282.584  0.00  0.00     0.034 C 
BRANCH  19  20
HETATM   20  C           1     174.139 184.805 284.022  0.00  0.00    -0.010 C 
HETATM   21  C           1     175.157 185.437 284.967  0.00  0.00     0.035 C 
HETATM   22  C           1     174.710 185.315 286.423  0.00  0.00     0.272 C 
HETATM   23  N           1     173.378 185.887 286.624  0.00  0.00     0.088 N 
HETATM   24  C           1     172.381 185.233 285.775  0.00  0.00     0.272 C 
HETATM   25  C           1     172.742 185.352 284.296  0.00  0.00     0.035 C 
BRANCH  23  26
HETATM   26  C           1     173.032 185.616 287.993  0.00  0.00     0.268 C 
HETATM   27  C           1     174.242 185.868 288.883  0.00  0.00     0.037 C 
ENDBRANCH  23  26
ENDBRANCH  19  20
ENDBRANCH  18  19
ENDBRANCH  16  18
ENDBRANCH  15  16
ENDBRANCH   5  15
BRANCH   4  28
HETATM   28  S           1     172.147 185.380 278.368  0.00  0.00    -0.105 SA
BRANCH  28  29
HETATM   29  C           1     172.539 186.141 276.767  0.00  0.00     0.122 C 
BRANCH  29  30
HETATM   30  C           1     174.004 186.003 276.494  0.00  0.00    -0.049 A 
HETATM   31  C           1     174.445 185.200 275.443  0.00  0.00     0.008 A 
HETATM   32  C           1     175.810 185.072 275.188  0.00  0.00     0.001 A 
HETATM   33  C           1     176.735 185.748 275.984  0.00  0.00     0.000 A 
HETATM   34  C           1     176.294 186.553 277.035  0.00  0.00     0.001 A 
HETATM   35  C           1     174.928 186.680 277.289  0.00  0.00     0.008 A 
ENDBRANCH  29  30
ENDBRANCH  28  29
ENDBRANCH   4  28
TORSDOF 9
ENDMDL
MODEL 4
REMARK VINA RESULT:      -7.3      7.728     11.351
REMARK  9 active torsions:
REMARK  status: ('A' for Active; 'I' for Inactive)
REMARK    1  A    between atoms: C_4  and  S_27 
REMARK    2  A    between atoms: C_5  and  C_7 
REMARK    3  A    between atoms: C_7  and  N_8 
REMARK    4  A    between atoms: N_8  and  C_9 
REMARK    5  A    between atoms: C_9  and  C_10 
REMARK    6  A    between atoms: C_10  and  C_11 
REMARK    7  A    between atoms: N_14  and  C_17 
REMARK    8  A    between atoms: S_27  and  C_34 
REMARK    9  A    between atoms: C_28  and  C_34 
ROOT
HETATM    1  C           1     171.904 188.767 283.720  0.00  0.00    -0.005 A 
HETATM    2  C           1     172.203 189.875 282.944  0.00  0.00     0.130 A 
HETATM    3  N           1     171.392 190.948 282.820  0.00  0.00    -0.253 NA
HETATM    4  C           1     170.229 190.910 283.507  0.00  0.00     0.101 A 
HETATM    5  C           1     169.842 189.848 284.308  0.00  0.00     0.006 A 
HETATM    6  C           1     170.698 188.757 284.414  0.00  0.00     0.025 A 
HETATM    7  C           1     172.750 187.735 283.799  0.00  0.00     0.014 A 
HETATM    8  C           1     174.084 187.896 283.424  0.00  0.00     0.130 A 
HETATM    9  C           1     174.967 186.820 283.507  0.00  0.00     0.085 A 
HETATM   10  C           1     174.516 185.582 283.964  0.00  0.00     0.119 A 
HETATM   11  C           1     173.182 185.420 284.339  0.00  0.00     0.043 A 
HETATM   12  C           1     172.299 186.497 284.256  0.00  0.00     0.018 A 
HETATM   13  F           1     175.352 184.563 284.043  0.00  0.00    -0.206 F 
HETATM   14  F           1     174.510 189.069 282.992  0.00  0.00    -0.205 F 
ENDROOT
BRANCH   5  15
HETATM   15  C           1     168.536 189.874 285.040  0.00  0.00     0.308 C 
BRANCH  15  16
HETATM   16  N           1     168.774 190.107 286.438  0.00  0.00     0.087 N 
HETATM   17  H           1     169.773 190.247 286.594  0.00  0.00     0.316 HD
BRANCH  16  18
HETATM   18  C           1     168.336 188.941 287.157  0.00  0.00     0.270 C 
BRANCH  18  19
HETATM   19  C           1     168.929 188.955 288.559  0.00  0.00     0.034 C 
BRANCH  19  20
HETATM   20  C           1     170.368 188.458 288.509  0.00  0.00    -0.010 C 
HETATM   21  C           1     170.908 188.344 289.931  0.00  0.00     0.035 C 
HETATM   22  C           1     172.278 187.667 289.950  0.00  0.00     0.272 C 
HETATM   23  N           1     172.239 186.360 289.294  0.00  0.00     0.088 N 
HETATM   24  C           1     171.795 186.471 287.904  0.00  0.00     0.272 C 
HETATM   25  C           1     170.408 187.104 287.810  0.00  0.00     0.035 C 
BRANCH  23  26
HETATM   26  C           1     173.595 185.881 289.282  0.00  0.00     0.268 C 
HETATM   27  C           1     174.161 185.989 287.872  0.00  0.00     0.037 C 
ENDBRANCH  23  26
ENDBRANCH  19  20
ENDBRANCH  18  19
ENDBRANCH  16  18
ENDBRANCH  15  16
ENDBRANCH   5  15
BRANCH   4  28
HETATM   28  S           1     169.110 192.332 283.371  0.00  0.00    -0.105 SA
BRANCH  28  29
HETATM   29  C           1     170.274 193.484 284.153  0.00  0.00     0.122 C 
BRANCH  29  30
HETATM   30  C           1     169.600 194.176 285.297  0.00  0.00    -0.049 A 
HETATM   31  C           1     168.900 193.433 286.247  0.00  0.00     0.008 A 
HETATM   32  C           1     168.273 194.078 287.313  0.00  0.00     0.001 A 
HETATM   33  C           1     168.345 195.466 287.428  0.00  0.00     0.000 A 
HETATM   34  C           1     169.046 196.209 286.479  0.00  0.00     0.001 A 
HETATM   35  C           1     169.673 195.564 285.413  0.00  0.00     0.008 A 
ENDBRANCH  29  30
ENDBRANCH  28  29
ENDBRANCH   4  28
TORSDOF 9
ENDMDL
MODEL 5
REMARK VINA RESULT:      -7.3      5.657     10.253
REMARK  9 active torsions:
REMARK  status: ('A' for Active; 'I' for Inactive)
REMARK    1  A    between atoms: C_4  and  S_27 
REMARK    2  A    between atoms: C_5  and  C_7 
REMARK    3  A    between atoms: C_7  and  N_8 
REMARK    4  A    between atoms: N_8  and  C_9 
REMARK    5  A    between atoms: C_9  and  C_10 
REMARK    6  A    between atoms: C_10  and  C_11 
REMARK    7  A    between atoms: N_14  and  C_17 
REMARK    8  A    between atoms: S_27  and  C_34 
REMARK    9  A    between atoms: C_28  and  C_34 
ROOT
HETATM    1  C           1     175.294 185.557 272.942  0.00  0.00    -0.005 A 
HETATM    2  C           1     173.913 185.456 273.018  0.00  0.00     0.130 A 
HETATM    3  N           1     173.107 185.353 271.939  0.00  0.00    -0.253 NA
HETATM    4  C           1     173.710 185.352 270.731  0.00  0.00     0.101 A 
HETATM    5  C           1     175.080 185.448 270.553  0.00  0.00     0.006 A 
HETATM    6  C           1     175.885 185.553 271.683  0.00  0.00     0.025 A 
HETATM    7  C           1     176.037 185.657 274.049  0.00  0.00     0.014 A 
HETATM    8  C           1     175.501 185.290 275.284  0.00  0.00     0.130 A 
HETATM    9  C           1     176.276 185.393 276.439  0.00  0.00     0.085 A 
HETATM   10  C           1     177.586 185.864 276.359  0.00  0.00     0.119 A 
HETATM   11  C           1     178.122 186.231 275.124  0.00  0.00     0.043 A 
HETATM   12  C           1     177.347 186.128 273.969  0.00  0.00     0.018 A 
HETATM   13  F           1     178.321 185.962 277.452  0.00  0.00    -0.206 F 
HETATM   14  F           1     174.260 184.843 275.359  0.00  0.00    -0.205 F 
ENDROOT
BRANCH   5  15
HETATM   15  C           1     175.680 185.440 269.181  0.00  0.00     0.308 C 
BRANCH  15  16
HETATM   16  N           1     176.275 184.157 268.925  0.00  0.00     0.087 N 
HETATM   17  H           1     177.211 184.130 269.329  0.00  0.00     0.316 HD
BRANCH  16  18
HETATM   18  C           1     176.364 183.993 267.499  0.00  0.00     0.270 C 
BRANCH  18  19
HETATM   19  C           1     175.670 185.159 266.809  0.00  0.00     0.034 C 
BRANCH  19  20
HETATM   20  C           1     174.907 184.650 265.593  0.00  0.00    -0.010 C 
HETATM   21  C           1     173.636 185.476 265.417  0.00  0.00     0.035 C 
HETATM   22  C           1     172.933 185.137 264.104  0.00  0.00     0.272 C 
HETATM   23  N           1     173.829 185.299 262.958  0.00  0.00     0.088 N 
HETATM   24  C           1     175.016 184.450 263.084  0.00  0.00     0.272 C 
HETATM   25  C           1     175.795 184.764 264.359  0.00  0.00     0.035 C 
BRANCH  23  26
HETATM   26  C           1     173.090 184.850 261.809  0.00  0.00     0.268 C 
HETATM   27  C           1     171.941 183.958 262.260  0.00  0.00     0.037 C 
ENDBRANCH  23  26
ENDBRANCH  19  20
ENDBRANCH  18  19
ENDBRANCH  16  18
ENDBRANCH  15  16
ENDBRANCH   5  15
BRANCH   4  28
HETATM   28  S           1     172.663 185.214 269.254  0.00  0.00    -0.105 SA
BRANCH  28  29
HETATM   29  C           1     171.906 186.848 269.484  0.00  0.00     0.122 C 
BRANCH  29  30
HETATM   30  C           1     172.912 187.913 269.173  0.00  0.00    -0.049 A 
HETATM   31  C           1     173.425 188.032 267.882  0.00  0.00     0.008 A 
HETATM   32  C           1     174.361 189.024 267.593  0.00  0.00     0.001 A 
HETATM   33  C           1     174.784 189.898 268.594  0.00  0.00     0.000 A 
HETATM   34  C           1     174.269 189.780 269.885  0.00  0.00     0.001 A 
HETATM   35  C           1     173.333 188.787 270.175  0.00  0.00     0.008 A 
ENDBRANCH  29  30
ENDBRANCH  28  29
ENDBRANCH   4  28
TORSDOF 9
ENDMDL
MODEL 6
REMARK VINA RESULT:      -7.3      5.841     10.672
REMARK  9 active torsions:
REMARK  status: ('A' for Active; 'I' for Inactive)
REMARK    1  A    between atoms: C_4  and  S_27 
REMARK    2  A    between atoms: C_5  and  C_7 
REMARK    3  A    between atoms: C_7  and  N_8 
REMARK    4  A    between atoms: N_8  and  C_9 
REMARK    5  A    between atoms: C_9  and  C_10 
REMARK    6  A    between atoms: C_10  and  C_11 
REMARK    7  A    between atoms: N_14  and  C_17 
REMARK    8  A    between atoms: S_27  and  C_34 
REMARK    9  A    between atoms: C_28  and  C_34 
ROOT
HETATM    1  C           1     175.355 185.588 272.968  0.00  0.00    -0.005 A 
HETATM    2  C           1     173.978 185.438 273.022  0.00  0.00     0.130 A 
HETATM    3  N           1     173.188 185.358 271.929  0.00  0.00    -0.253 NA
HETATM    4  C           1     173.805 185.430 270.729  0.00  0.00     0.101 A 
HETATM    5  C           1     175.173 185.579 270.574  0.00  0.00     0.006 A 
HETATM    6  C           1     175.960 185.659 271.718  0.00  0.00     0.025 A 
HETATM    7  C           1     176.081 185.662 274.088  0.00  0.00     0.014 A 
HETATM    8  C           1     175.544 185.223 275.298  0.00  0.00     0.130 A 
HETATM    9  C           1     176.301 185.300 276.467  0.00  0.00     0.085 A 
HETATM   10  C           1     177.596 185.817 276.425  0.00  0.00     0.119 A 
HETATM   11  C           1     178.133 186.256 275.215  0.00  0.00     0.043 A 
HETATM   12  C           1     177.376 186.179 274.047  0.00  0.00     0.018 A 
HETATM   13  F           1     178.314 185.889 277.531  0.00  0.00    -0.206 F 
HETATM   14  F           1     174.318 184.733 275.337  0.00  0.00    -0.205 F 
ENDROOT
BRANCH   5  15
HETATM   15  C           1     175.789 185.653 269.211  0.00  0.00     0.308 C 
BRANCH  15  16
HETATM   16  N           1     176.627 184.504 269.001  0.00  0.00     0.087 N 
HETATM   17  H           1     177.436 184.557 269.620  0.00  0.00     0.316 HD
BRANCH  16  18
HETATM   18  C           1     177.069 184.529 267.633  0.00  0.00     0.270 C 
BRANCH  18  19
HETATM   19  C           1     175.866 184.684 266.713  0.00  0.00     0.034 C 
BRANCH  19  20
HETATM   20  C           1     176.024 183.765 265.508  0.00  0.00    -0.010 C 
HETATM   21  C           1     176.084 184.609 264.239  0.00  0.00     0.035 C 
HETATM   22  C           1     176.435 183.754 263.022  0.00  0.00     0.272 C 
HETATM   23  N           1     177.684 183.019 263.227  0.00  0.00     0.088 N 
HETATM   24  C           1     177.607 182.148 264.401  0.00  0.00     0.272 C 
HETATM   25  C           1     177.299 182.944 265.667  0.00  0.00     0.035 C 
BRANCH  23  26
HETATM   26  C           1     177.845 182.180 262.070  0.00  0.00     0.268 C 
HETATM   27  C           1     179.300 182.209 261.618  0.00  0.00     0.037 C 
ENDBRANCH  23  26
ENDBRANCH  19  20
ENDBRANCH  18  19
ENDBRANCH  16  18
ENDBRANCH  15  16
ENDBRANCH   5  15
BRANCH   4  28
HETATM   28  S           1     172.780 185.325 269.235  0.00  0.00    -0.105 SA
BRANCH  28  29
HETATM   29  C           1     171.975 186.926 269.521  0.00  0.00     0.122 C 
BRANCH  29  30
HETATM   30  C           1     172.924 188.031 269.178  0.00  0.00    -0.049 A 
HETATM   31  C           1     173.288 188.965 270.147  0.00  0.00     0.008 A 
HETATM   32  C           1     174.174 189.994 269.828  0.00  0.00     0.001 A 
HETATM   33  C           1     174.695 190.090 268.538  0.00  0.00     0.000 A 
HETATM   34  C           1     174.332 189.155 267.567  0.00  0.00     0.001 A 
HETATM   35  C           1     173.446 188.126 267.888  0.00  0.00     0.008 A 
ENDBRANCH  29  30
ENDBRANCH  28  29
ENDBRANCH   4  28
TORSDOF 9
ENDMDL
MODEL 7
REMARK VINA RESULT:      -7.2      5.381      9.973
REMARK  9 active torsions:
REMARK  status: ('A' for Active; 'I' for Inactive)
REMARK    1  A    between atoms: C_4  and  S_27 
REMARK    2  A    between atoms: C_5  and  C_7 
REMARK    3  A    between atoms: C_7  and  N_8 
REMARK    4  A    between atoms: N_8  and  C_9 
REMARK    5  A    between atoms: C_9  and  C_10 
REMARK    6  A    between atoms: C_10  and  C_11 
REMARK    7  A    between atoms: N_14  and  C_17 
REMARK    8  A    between atoms: S_27  and  C_34 
REMARK    9  A    between atoms: C_28  and  C_34 
ROOT
HETATM    1  C           1     173.391 186.353 283.618  0.00  0.00    -0.005 A 
HETATM    2  C           1     173.693 185.298 282.770  0.00  0.00     0.130 A 
HETATM    3  N           1     173.523 185.339 281.431  0.00  0.00    -0.253 NA
HETATM    4  C           1     173.028 186.486 280.917  0.00  0.00     0.101 A 
HETATM    5  C           1     172.697 187.592 281.682  0.00  0.00     0.006 A 
HETATM    6  C           1     172.883 187.521 283.059  0.00  0.00     0.025 A 
HETATM    7  C           1     173.582 186.249 284.937  0.00  0.00     0.014 A 
HETATM    8  C           1     174.419 185.255 285.445  0.00  0.00     0.130 A 
HETATM    9  C           1     174.619 185.148 286.821  0.00  0.00     0.085 A 
HETATM   10  C           1     173.980 186.033 287.689  0.00  0.00     0.119 A 
HETATM   11  C           1     173.143 187.027 287.182  0.00  0.00     0.043 A 
HETATM   12  C           1     172.944 187.134 285.806  0.00  0.00     0.018 A 
HETATM   13  F           1     174.170 185.931 288.992  0.00  0.00    -0.206 F 
HETATM   14  F           1     175.023 184.418 284.622  0.00  0.00    -0.205 F 
ENDROOT
BRANCH   5  15
HETATM   15  C           1     172.152 188.833 281.044  0.00  0.00     0.308 C 
BRANCH  15  16
HETATM   16  N           1     172.818 189.985 281.589  0.00  0.00     0.087 N 
HETATM   17  H           1     172.957 189.854 282.591  0.00  0.00     0.316 HD
BRANCH  16  18
HETATM   18  C           1     171.971 191.125 281.367  0.00  0.00     0.270 C 
BRANCH  18  19
HETATM   19  C           1     170.576 190.835 281.903  0.00  0.00     0.034 C 
BRANCH  19  20
HETATM   20  C           1     170.412 191.479 283.273  0.00  0.00    -0.010 C 
HETATM   21  C           1     170.574 192.990 283.138  0.00  0.00     0.035 C 
HETATM   22  C           1     170.228 193.702 284.446  0.00  0.00     0.272 C 
HETATM   23  N           1     168.883 193.355 284.906  0.00  0.00     0.088 N 
HETATM   24  C           1     168.744 191.912 285.111  0.00  0.00     0.272 C 
HETATM   25  C           1     169.035 191.135 283.829  0.00  0.00     0.035 C 
BRANCH  23  26
HETATM   26  C           1     168.722 193.996 286.183  0.00  0.00     0.268 C 
HETATM   27  C           1     169.534 195.284 286.211  0.00  0.00     0.037 C 
ENDBRANCH  23  26
ENDBRANCH  19  20
ENDBRANCH  18  19
ENDBRANCH  16  18
ENDBRANCH  15  16
ENDBRANCH   5  15
BRANCH   4  28
HETATM   28  S           1     172.785 186.583 279.122  0.00  0.00    -0.105 SA
BRANCH  28  29
HETATM   29  C           1     174.522 186.986 278.781  0.00  0.00     0.122 C 
BRANCH  29  30
HETATM   30  C           1     174.917 186.410 277.457  0.00  0.00    -0.049 A 
HETATM   31  C           1     176.240 186.496 277.025  0.00  0.00     0.008 A 
HETATM   32  C           1     176.609 185.958 275.792  0.00  0.00     0.001 A 
HETATM   33  C           1     175.653 185.334 274.990  0.00  0.00     0.000 A 
HETATM   34  C           1     174.330 185.247 275.422  0.00  0.00     0.001 A 
HETATM   35  C           1     173.962 185.785 276.655  0.00  0.00     0.008 A 
ENDBRANCH  29  30
ENDBRANCH  28  29
ENDBRANCH   4  28
TORSDOF 9
ENDMDL
MODEL 8
REMARK VINA RESULT:      -7.2      5.536      8.685
REMARK  9 active torsions:
REMARK  status: ('A' for Active; 'I' for Inactive)
REMARK    1  A    between atoms: C_4  and  S_27 
REMARK    2  A    between atoms: C_5  and  C_7 
REMARK    3  A    between atoms: C_7  and  N_8 
REMARK    4  A    between atoms: N_8  and  C_9 
REMARK    5  A    between atoms: C_9  and  C_10 
REMARK    6  A    between atoms: C_10  and  C_11 
REMARK    7  A    between atoms: N_14  and  C_17 
REMARK    8  A    between atoms: S_27  and  C_34 
REMARK    9  A    between atoms: C_28  and  C_34 
ROOT
HETATM    1  C           1     174.921 183.174 269.447  0.00  0.00    -0.005 A 
HETATM    2  C           1     175.947 183.524 270.310  0.00  0.00     0.130 A 
HETATM    3  N           1     175.895 184.581 271.150  0.00  0.00    -0.253 NA
HETATM    4  C           1     174.765 185.320 271.124  0.00  0.00     0.101 A 
HETATM    5  C           1     173.687 185.050 270.298  0.00  0.00     0.006 A 
HETATM    6  C           1     173.770 183.955 269.444  0.00  0.00     0.025 A 
HETATM    7  C           1     175.034 182.114 268.640  0.00  0.00     0.014 A 
HETATM    8  C           1     175.995 181.137 268.901  0.00  0.00     0.130 A 
HETATM    9  C           1     176.113 180.032 268.059  0.00  0.00     0.085 A 
HETATM   10  C           1     175.271 179.904 266.954  0.00  0.00     0.119 A 
HETATM   11  C           1     174.310 180.881 266.692  0.00  0.00     0.043 A 
HETATM   12  C           1     174.192 181.987 267.535  0.00  0.00     0.018 A 
HETATM   13  F           1     175.382 178.858 266.157  0.00  0.00    -0.206 F 
HETATM   14  F           1     176.791 181.259 269.948  0.00  0.00    -0.205 F 
ENDROOT
BRANCH   5  15
HETATM   15  C           1     172.464 185.915 270.322  0.00  0.00     0.308 C 
BRANCH  15  16
HETATM   16  N           1     171.949 186.055 268.987  0.00  0.00     0.087 N 
HETATM   17  H           1     172.073 185.177 268.482  0.00  0.00     0.316 HD
BRANCH  16  18
HETATM   18  C           1     172.701 187.093 268.335  0.00  0.00     0.270 C 
BRANCH  18  19
HETATM   19  C           1     172.676 186.870 266.829  0.00  0.00     0.034 C 
BRANCH  19  20
HETATM   20  C           1     173.564 185.684 266.475  0.00  0.00    -0.010 C 
HETATM   21  C           1     173.450 185.403 264.979  0.00  0.00     0.035 C 
HETATM   22  C           1     174.464 184.350 264.536  0.00  0.00     0.272 C 
HETATM   23  N           1     175.829 184.734 264.898  0.00  0.00     0.088 N 
HETATM   24  C           1     175.964 184.931 266.342  0.00  0.00     0.272 C 
HETATM   25  C           1     175.006 186.005 266.852  0.00  0.00     0.035 C 
BRANCH  23  26
HETATM   26  C           1     176.665 183.625 264.527  0.00  0.00     0.268 C 
HETATM   27  C           1     177.337 183.057 265.770  0.00  0.00     0.037 C 
ENDBRANCH  23  26
ENDBRANCH  19  20
ENDBRANCH  18  19
ENDBRANCH  16  18
ENDBRANCH  15  16
ENDBRANCH   5  15
BRANCH   4  28
HETATM   28  S           1     174.653 186.749 272.237  0.00  0.00    -0.105 SA
BRANCH  28  29
HETATM   29  C           1     174.434 185.733 273.725  0.00  0.00     0.122 C 
BRANCH  29  30
HETATM   30  C           1     175.702 185.733 274.521  0.00  0.00    -0.049 A 
HETATM   31  C           1     175.772 185.026 275.721  0.00  0.00     0.008 A 
HETATM   32  C           1     176.954 185.025 276.462  0.00  0.00     0.001 A 
HETATM   33  C           1     178.065 185.732 276.003  0.00  0.00     0.000 A 
HETATM   34  C           1     177.996 186.438 274.802  0.00  0.00     0.001 A 
HETATM   35  C           1     176.814 186.438 274.061  0.00  0.00     0.008 A 
ENDBRANCH  29  30
ENDBRANCH  28  29
ENDBRANCH   4  28
TORSDOF 9
ENDMDL
MODEL 9
REMARK VINA RESULT:      -7.1      3.500      7.737
REMARK  9 active torsions:
REMARK  status: ('A' for Active; 'I' for Inactive)
REMARK    1  A    between atoms: C_4  and  S_27 
REMARK    2  A    between atoms: C_5  and  C_7 
REMARK    3  A    between atoms: C_7  and  N_8 
REMARK    4  A    between atoms: N_8  and  C_9 
REMARK    5  A    between atoms: C_9  and  C_10 
REMARK    6  A    between atoms: C_10  and  C_11 
REMARK    7  A    between atoms: N_14  and  C_17 
REMARK    8  A    between atoms: S_27  and  C_34 
REMARK    9  A    between atoms: C_28  and  C_34 
ROOT
HETATM    1  C           1     173.851 186.527 277.623  0.00  0.00    -0.005 A 
HETATM    2  C           1     172.493 186.666 277.863  0.00  0.00     0.130 A 
HETATM    3  N           1     171.979 187.133 279.022  0.00  0.00    -0.253 NA
HETATM    4  C           1     172.865 187.476 279.982  0.00  0.00     0.101 A 
HETATM    5  C           1     174.238 187.372 279.836  0.00  0.00     0.006 A 
HETATM    6  C           1     174.738 186.888 278.632  0.00  0.00     0.025 A 
HETATM    7  C           1     174.297 186.057 276.453  0.00  0.00     0.014 A 
HETATM    8  C           1     173.458 186.054 275.338  0.00  0.00     0.130 A 
HETATM    9  C           1     173.923 185.565 274.117  0.00  0.00     0.085 A 
HETATM   10  C           1     175.225 185.078 274.012  0.00  0.00     0.119 A 
HETATM   11  C           1     176.064 185.081 275.126  0.00  0.00     0.043 A 
HETATM   12  C           1     175.599 185.571 276.347  0.00  0.00     0.018 A 
HETATM   13  F           1     175.666 184.615 272.856  0.00  0.00    -0.206 F 
HETATM   14  F           1     172.225 186.515 275.438  0.00  0.00    -0.205 F 
ENDROOT
BRANCH   5  15
HETATM   15  C           1     175.162 187.771 280.946  0.00  0.00     0.308 C 
BRANCH  15  16
HETATM   16  N           1     175.846 186.608 281.442  0.00  0.00     0.087 N 
HETATM   17  H           1     175.523 185.783 280.936  0.00  0.00     0.316 HD
BRANCH  16  18
HETATM   18  C           1     175.521 186.471 282.836  0.00  0.00     0.270 C 
BRANCH  18  19
HETATM   19  C           1     174.859 185.121 283.075  0.00  0.00     0.034 C 
BRANCH  19  20
HETATM   20  C           1     173.969 185.200 284.308  0.00  0.00    -0.010 C 
HETATM   21  C           1     174.716 184.616 285.503  0.00  0.00     0.035 C 
HETATM   22  C           1     173.946 184.846 286.803  0.00  0.00     0.272 C 
HETATM   23  N           1     173.651 186.265 287.007  0.00  0.00     0.088 N 
HETATM   24  C           1     172.868 186.814 285.899  0.00  0.00     0.272 C 
HETATM   25  C           1     173.598 186.656 284.567  0.00  0.00     0.035 C 
BRANCH  23  26
HETATM   26  C           1     172.841 186.335 288.193  0.00  0.00     0.268 C 
HETATM   27  C           1     171.724 185.303 288.108  0.00  0.00     0.037 C 
ENDBRANCH  23  26
ENDBRANCH  19  20
ENDBRANCH  18  19
ENDBRANCH  16  18
ENDBRANCH  15  16
ENDBRANCH   5  15
BRANCH   4  28
HETATM   28  S           1     172.217 188.108 281.555  0.00  0.00    -0.105 SA
BRANCH  28  29
HETATM   29  C           1     171.163 189.357 280.764  0.00  0.00     0.122 C 
BRANCH  29  30
HETATM   30  C           1     171.045 190.551 281.659  0.00  0.00    -0.049 A 
HETATM   31  C           1     170.074 190.580 282.659  0.00  0.00     0.008 A 
HETATM   32  C           1     169.965 191.692 283.493  0.00  0.00     0.001 A 
HETATM   33  C           1     170.828 192.776 283.328  0.00  0.00     0.000 A 
HETATM   34  C           1     171.800 192.746 282.328  0.00  0.00     0.001 A 
HETATM   35  C           1     171.909 191.634 281.494  0.00  0.00     0.008 A 
ENDBRANCH  29  30
ENDBRANCH  28  29
ENDBRANCH   4  28
TORSDOF 9
ENDMDL
