REMARK  10 active torsions:
REMARK  status: ('A' for Active; 'I' for Inactive)
REMARK    1  A    between atoms: C1_1  and  C2_2 
REMARK    2  A    between atoms: C11_12  and  S1_13 
REMARK    3  A    between atoms: S1_13  and  C12_14 
REMARK    4  A    between atoms: C12_14  and  C13_15 
REMARK    5  A    between atoms: C19_21  and  C20_22 
REMARK    6  A    between atoms: C20_22  and  N2_23 
REMARK    7  A    between atoms: N2_23  and  C21_24 
REMARK    8  A    between atoms: C21_24  and  C22_25 
REMARK    9  A    between atoms: C25_28  and  C26_29 
REMARK   10  A    between atoms: C26_29  and  N3_30 
ROOT
HETATM    1  C1  UNL     1       1.557  -1.283   3.272  1.00  0.00    -0.025 A 
HETATM    2  C8  UNL     1       2.846  -1.844   3.210  1.00  0.00     0.014 A 
HETATM    3  C9  UNL     1       3.681  -1.586   2.116  1.00  0.00     0.033 A 
HETATM    4  C10 UNL     1       3.243  -0.754   1.081  1.00  0.00     0.068 A 
HETATM    5  N1  UNL     1       4.034  -0.542  -0.003  1.00  0.00    -0.241 NA
HETATM    6  C11 UNL     1       3.637   0.230  -1.051  1.00  0.00     0.102 A 
HETATM    7  C19 UNL     1       2.363   0.848  -1.034  1.00  0.00     0.006 A 
HETATM    8  C33 UNL     1       1.559   0.686   0.111  1.00  0.00     0.025 A 
HETATM    9  C34 UNL     1       1.973  -0.148   1.155  1.00  0.00    -0.006 A 
HETATM   10  C35 UNL     1       1.136  -0.412   2.250  1.00  0.00     0.026 A 
ENDROOT
BRANCH   7  11
HETATM   11  C20 UNL     1       1.879   1.714  -2.185  1.00  0.00     0.311 C 
BRANCH  11  12
HETATM   12  N2  UNL     1       0.423   1.617  -2.374  1.00  0.00     0.091 N 
HETATM   13  H17 UNL     1       0.136   2.359  -3.055  1.00  0.00     0.316 HD
BRANCH  12  14
HETATM   14  C21 UNL     1       0.002   0.307  -2.900  1.00  0.00     0.308 C 
BRANCH  14  15
HETATM   15  C22 UNL     1      -1.110  -0.215  -2.040  1.00  0.00    -0.030 A 
HETATM   16  C23 UNL     1      -2.391   0.347  -2.129  1.00  0.00     0.009 A 
HETATM   17  C24 UNL     1      -3.399  -0.046  -1.244  1.00  0.00     0.009 A 
HETATM   18  C25 UNL     1      -3.130  -0.978  -0.228  1.00  0.00    -0.030 A 
HETATM   19  C31 UNL     1      -1.858  -1.572  -0.172  1.00  0.00     0.009 A 
HETATM   20  C32 UNL     1      -0.860  -1.201  -1.075  1.00  0.00     0.009 A 
BRANCH  18  21
HETATM   21  C26 UNL     1      -4.179  -1.339   0.809  1.00  0.00     0.311 C 
BRANCH  21  22
HETATM   22  N3  UNL     1      -4.404  -0.304   1.853  1.00  0.00     0.092 N 
HETATM   23  C27 UNL     1      -5.299   0.788   1.433  1.00  0.00     0.273 C 
HETATM   24  C28 UNL     1      -4.519   2.101   1.497  1.00  0.00     0.032 C 
HETATM   25  C29 UNL     1      -3.086   1.713   1.797  1.00  0.00     0.032 C 
HETATM   26  C30 UNL     1      -3.183   0.318   2.388  1.00  0.00     0.273 C 
ENDBRANCH  21  22
ENDBRANCH  18  21
ENDBRANCH  14  15
ENDBRANCH  12  14
ENDBRANCH  11  12
ENDBRANCH   7  11
BRANCH   6  27
HETATM   27  S1  UNL     1       4.767   0.418  -2.437  1.00  0.00    -0.105 SA
BRANCH  27  28
HETATM   28  C12 UNL     1       4.194  -1.090  -3.302  1.00  0.00     0.119 C 
BRANCH  28  29
HETATM   29  C13 UNL     1       4.257  -0.884  -4.792  1.00  0.00    -0.049 A 
HETATM   30  C14 UNL     1       3.083  -0.902  -5.564  1.00  0.00     0.008 A 
HETATM   31  C15 UNL     1       3.147  -0.703  -6.948  1.00  0.00     0.001 A 
HETATM   32  C16 UNL     1       4.378  -0.484  -7.570  1.00  0.00     0.000 A 
HETATM   33  C17 UNL     1       5.551  -0.469  -6.812  1.00  0.00     0.001 A 
HETATM   34  C18 UNL     1       5.493  -0.672  -5.427  1.00  0.00     0.008 A 
ENDBRANCH  28  29
ENDBRANCH  27  28
ENDBRANCH   6  27
BRANCH   1  35
HETATM   35  C2  UNL     1       0.639  -1.636   4.382  1.00  0.00    -0.026 A 
HETATM   36  C3  UNL     1      -0.694  -1.995   4.110  1.00  0.00     0.012 A 
HETATM   37  C4  UNL     1      -1.562  -2.340   5.151  1.00  0.00     0.001 A 
HETATM   38  C5  UNL     1      -1.104  -2.338   6.470  1.00  0.00     0.000 A 
HETATM   39  C6  UNL     1       0.223  -1.998   6.750  1.00  0.00     0.001 A 
HETATM   40  C7  UNL     1       1.092  -1.647   5.713  1.00  0.00     0.012 A 
ENDBRANCH   1  35
TORSDOF 10
