MODEL 1
REMARK VINA RESULT:      -7.6      0.000      0.000
REMARK  9 active torsions:
REMARK  status: ('A' for Active; 'I' for Inactive)
REMARK    1  A    between atoms: C_2  and  C_18 
REMARK    2  A    between atoms: C_5  and  S_9 
REMARK    3  A    between atoms: C_6  and  C_8 
REMARK    4  A    between atoms: C_8  and  N_17 
REMARK    5  A    between atoms: S_9  and  C_10 
REMARK    6  A    between atoms: C_10  and  C_11 
REMARK    7  A    between atoms: N_17  and  C_19 
REMARK    8  A    between atoms: C_19  and  C_20 
REMARK    9  A    between atoms: C_20  and  N_21 
ROOT
HETATM    1  C           1     174.454 186.292 271.967  0.00  0.00     0.101 A 
HETATM    2  C           1     175.564 185.537 272.310  0.00  0.00    -0.010 A 
HETATM    3  N           1     173.868 186.258 270.750  0.00  0.00    -0.359 N 
ATOM      4  HN          1     173.051 186.829 270.532  1.00  0.00     0.166 HD
HETATM    5  C           1     174.420 185.430 269.836  0.00  0.00     0.077 A 
HETATM    6  C           1     175.529 184.637 270.084  0.00  0.00     0.004 A 
HETATM    7  C           1     176.110 184.694 271.347  0.00  0.00     0.025 A 
ENDROOT
BRANCH   6   8
HETATM    8  C           1     176.087 183.741 269.022  0.00  0.00     0.311 C 
BRANCH   8   9
HETATM    9  N           1     177.277 184.333 268.472  0.00  0.00     0.089 N 
HETATM   10  H           1     177.276 185.336 268.659  0.00  0.00     0.316 HD
BRANCH   9  11
HETATM   11  C           1     177.259 184.110 267.051  0.00  0.00     0.300 C 
BRANCH  11  12
HETATM   12  C           1     176.316 182.959 266.729  0.00  0.00     0.302 C 
BRANCH  12  13
HETATM   13  N           1     175.831 183.099 265.382  0.00  0.00     0.093 N 
HETATM   14  C           1     174.366 182.953 265.436  0.00  0.00     0.302 C 
HETATM   15  C           1     173.673 183.331 264.109  0.00  0.00     0.302 C 
HETATM   16  N           1     174.015 184.688 263.649  0.00  0.00     0.087 N 
HETATM   17  C           1     173.513 184.813 262.307  0.00  0.00     0.310 C 
HETATM   18  C           1     175.480 184.833 263.594  0.00  0.00     0.302 C 
HETATM   19  C           1     176.173 184.456 264.921  0.00  0.00     0.302 C 
ENDBRANCH  12  13
ENDBRANCH  11  12
ENDBRANCH   9  11
ENDBRANCH   8   9
ENDBRANCH   6   8
BRANCH   5  20
HETATM   20  S           1     173.666 185.352 268.187  0.00  0.00    -0.107 SA
BRANCH  20  21
HETATM   21  C           1     174.637 186.741 267.537  0.00  0.00     0.119 C 
BRANCH  21  22
HETATM   22  C           1     173.773 187.960 267.454  0.00  0.00    -0.049 A 
HETATM   23  C           1     172.520 187.887 266.844  0.00  0.00     0.008 A 
HETATM   24  C           1     171.715 189.023 266.766  0.00  0.00     0.001 A 
HETATM   25  C           1     172.162 190.232 267.299  0.00  0.00     0.000 A 
HETATM   26  C           1     173.414 190.306 267.909  0.00  0.00     0.001 A 
HETATM   27  C           1     174.220 189.170 267.986  0.00  0.00     0.008 A 
ENDBRANCH  21  22
ENDBRANCH  20  21
ENDBRANCH   5  20
BRANCH   2  28
HETATM   28  C           1     176.097 185.617 273.534  0.00  0.00    -0.025 A 
HETATM   29  C           1     177.313 186.272 273.723  0.00  0.00     0.012 A 
HETATM   30  C           1     177.868 186.357 274.999  0.00  0.00     0.001 A 
HETATM   31  C           1     177.208 185.786 276.086  0.00  0.00     0.000 A 
HETATM   32  C           1     175.991 185.129 275.898  0.00  0.00     0.001 A 
HETATM   33  C           1     175.435 185.046 274.621  0.00  0.00     0.012 A 
ENDBRANCH   2  28
TORSDOF 9
ENDMDL
MODEL 2
REMARK VINA RESULT:      -7.6      1.314      2.160
REMARK  9 active torsions:
REMARK  status: ('A' for Active; 'I' for Inactive)
REMARK    1  A    between atoms: C_2  and  C_18 
REMARK    2  A    between atoms: C_5  and  S_9 
REMARK    3  A    between atoms: C_6  and  C_8 
REMARK    4  A    between atoms: C_8  and  N_17 
REMARK    5  A    between atoms: S_9  and  C_10 
REMARK    6  A    between atoms: C_10  and  C_11 
REMARK    7  A    between atoms: N_17  and  C_19 
REMARK    8  A    between atoms: C_19  and  C_20 
REMARK    9  A    between atoms: C_20  and  N_21 
ROOT
HETATM    1  C           1     174.469 186.309 271.984  0.00  0.00     0.101 A 
HETATM    2  C           1     175.575 185.547 272.327  0.00  0.00    -0.010 A 
HETATM    3  N           1     173.886 186.282 270.766  0.00  0.00    -0.359 N 
ATOM      4  HN          1     173.072 186.858 270.549  1.00  0.00     0.166 HD
HETATM    5  C           1     174.434 185.453 269.852  0.00  0.00     0.077 A 
HETATM    6  C           1     175.538 184.652 270.099  0.00  0.00     0.004 A 
HETATM    7  C           1     176.117 184.703 271.363  0.00  0.00     0.025 A 
ENDROOT
BRANCH   6   8
HETATM    8  C           1     176.092 183.756 269.035  0.00  0.00     0.311 C 
BRANCH   8   9
HETATM    9  N           1     177.280 184.346 268.482  0.00  0.00     0.089 N 
HETATM   10  H           1     177.271 185.352 268.650  0.00  0.00     0.316 HD
BRANCH   9  11
HETATM   11  C           1     177.274 184.096 267.066  0.00  0.00     0.300 C 
BRANCH  11  12
HETATM   12  C           1     176.255 183.011 266.745  0.00  0.00     0.302 C 
BRANCH  12  13
HETATM   13  N           1     176.386 182.622 265.367  0.00  0.00     0.093 N 
HETATM   14  C           1     176.612 183.856 264.594  0.00  0.00     0.302 C 
HETATM   15  C           1     177.025 183.583 263.131  0.00  0.00     0.302 C 
HETATM   16  N           1     178.208 182.712 263.022  0.00  0.00     0.087 N 
HETATM   17  C           1     178.331 182.343 261.638  0.00  0.00     0.310 C 
HETATM   18  C           1     177.983 181.479 263.796  0.00  0.00     0.302 C 
HETATM   19  C           1     177.569 181.752 265.258  0.00  0.00     0.302 C 
ENDBRANCH  12  13
ENDBRANCH  11  12
ENDBRANCH   9  11
ENDBRANCH   8   9
ENDBRANCH   6   8
BRANCH   5  20
HETATM   20  S           1     173.681 185.383 268.201  0.00  0.00    -0.107 SA
BRANCH  20  21
HETATM   21  C           1     174.656 186.773 267.559  0.00  0.00     0.119 C 
BRANCH  21  22
HETATM   22  C           1     173.793 187.992 267.474  0.00  0.00    -0.049 A 
HETATM   23  C           1     174.240 189.202 268.006  0.00  0.00     0.008 A 
HETATM   24  C           1     173.435 190.339 267.928  0.00  0.00     0.001 A 
HETATM   25  C           1     172.182 190.265 267.317  0.00  0.00     0.000 A 
HETATM   26  C           1     171.735 189.056 266.785  0.00  0.00     0.001 A 
HETATM   27  C           1     172.540 187.919 266.864  0.00  0.00     0.008 A 
ENDBRANCH  21  22
ENDBRANCH  20  21
ENDBRANCH   5  20
BRANCH   2  28
HETATM   28  C           1     176.106 185.621 273.552  0.00  0.00    -0.025 A 
HETATM   29  C           1     175.466 185.009 274.629  0.00  0.00     0.012 A 
HETATM   30  C           1     176.021 185.085 275.905  0.00  0.00     0.001 A 
HETATM   31  C           1     177.217 185.774 276.106  0.00  0.00     0.000 A 
HETATM   32  C           1     177.858 186.387 275.029  0.00  0.00     0.001 A 
HETATM   33  C           1     177.303 186.310 273.751  0.00  0.00     0.012 A 
ENDBRANCH   2  28
TORSDOF 9
ENDMDL
MODEL 3
REMARK VINA RESULT:      -7.6      8.331     13.543
REMARK  9 active torsions:
REMARK  status: ('A' for Active; 'I' for Inactive)
REMARK    1  A    between atoms: C_2  and  C_18 
REMARK    2  A    between atoms: C_5  and  S_9 
REMARK    3  A    between atoms: C_6  and  C_8 
REMARK    4  A    between atoms: C_8  and  N_17 
REMARK    5  A    between atoms: S_9  and  C_10 
REMARK    6  A    between atoms: C_10  and  C_11 
REMARK    7  A    between atoms: N_17  and  C_19 
REMARK    8  A    between atoms: C_19  and  C_20 
REMARK    9  A    between atoms: C_20  and  N_21 
ROOT
HETATM    1  C           1     173.526 189.215 283.466  0.00  0.00     0.101 A 
HETATM    2  C           1     172.742 189.535 282.368  0.00  0.00    -0.010 A 
HETATM    3  N           1     174.448 188.228 283.470  0.00  0.00    -0.359 N 
ATOM      4  HN          1     175.007 188.020 284.297  1.00  0.00     0.166 HD
HETATM    5  C           1     174.592 187.530 282.322  0.00  0.00     0.077 A 
HETATM    6  C           1     173.856 187.774 281.173  0.00  0.00     0.004 A 
HETATM    7  C           1     172.914 188.797 281.200  0.00  0.00     0.025 A 
ENDROOT
BRANCH   6   8
HETATM    8  C           1     174.069 186.959 279.936  0.00  0.00     0.311 C 
BRANCH   8   9
HETATM    9  N           1     172.841 186.883 279.194  0.00  0.00     0.089 N 
HETATM   10  H           1     172.104 186.510 279.793  0.00  0.00     0.316 HD
BRANCH   9  11
HETATM   11  C           1     173.054 185.992 278.085  0.00  0.00     0.300 C 
BRANCH  11  12
HETATM   12  C           1     172.786 186.730 276.780  0.00  0.00     0.302 C 
BRANCH  12  13
HETATM   13  N           1     173.904 186.556 275.893  0.00  0.00     0.093 N 
HETATM   14  C           1     174.731 187.770 276.002  0.00  0.00     0.302 C 
HETATM   15  C           1     176.102 187.631 275.303  0.00  0.00     0.302 C 
HETATM   16  N           1     176.872 186.468 275.775  0.00  0.00     0.087 N 
HETATM   17  C           1     177.990 186.316 274.884  0.00  0.00     0.310 C 
HETATM   18  C           1     176.044 185.254 275.666  0.00  0.00     0.302 C 
HETATM   19  C           1     174.675 185.393 276.365  0.00  0.00     0.302 C 
ENDBRANCH  12  13
ENDBRANCH  11  12
ENDBRANCH   9  11
ENDBRANCH   8   9
ENDBRANCH   6   8
BRANCH   5  20
HETATM   20  S           1     175.820 186.195 282.282  0.00  0.00    -0.107 SA
BRANCH  20  21
HETATM   21  C           1     174.588 184.882 282.514  0.00  0.00     0.119 C 
BRANCH  21  22
HETATM   22  C           1     174.103 184.897 283.929  0.00  0.00    -0.049 A 
HETATM   23  C           1     174.995 184.665 284.976  0.00  0.00     0.008 A 
HETATM   24  C           1     174.543 184.678 286.295  0.00  0.00     0.001 A 
HETATM   25  C           1     173.196 184.924 286.568  0.00  0.00     0.000 A 
HETATM   26  C           1     172.304 185.156 285.522  0.00  0.00     0.001 A 
HETATM   27  C           1     172.756 185.142 284.202  0.00  0.00     0.008 A 
ENDBRANCH  21  22
ENDBRANCH  20  21
ENDBRANCH   5  20
BRANCH   2  28
HETATM   28  C           1     171.846 190.524 282.430  0.00  0.00    -0.025 A 
HETATM   29  C           1     172.111 191.746 281.812  0.00  0.00     0.012 A 
HETATM   30  C           1     171.176 192.778 281.875  0.00  0.00     0.001 A 
HETATM   31  C           1     169.973 192.588 282.557  0.00  0.00     0.000 A 
HETATM   32  C           1     169.707 191.366 283.175  0.00  0.00     0.001 A 
HETATM   33  C           1     170.643 190.334 283.111  0.00  0.00     0.012 A 
ENDBRANCH   2  28
TORSDOF 9
ENDMDL
MODEL 4
REMARK VINA RESULT:      -7.6      8.731     14.433
REMARK  9 active torsions:
REMARK  status: ('A' for Active; 'I' for Inactive)
REMARK    1  A    between atoms: C_2  and  C_18 
REMARK    2  A    between atoms: C_5  and  S_9 
REMARK    3  A    between atoms: C_6  and  C_8 
REMARK    4  A    between atoms: C_8  and  N_17 
REMARK    5  A    between atoms: S_9  and  C_10 
REMARK    6  A    between atoms: C_10  and  C_11 
REMARK    7  A    between atoms: N_17  and  C_19 
REMARK    8  A    between atoms: C_19  and  C_20 
REMARK    9  A    between atoms: C_20  and  N_21 
ROOT
HETATM    1  C           1     170.783 189.077 279.697  0.00  0.00     0.101 A 
HETATM    2  C           1     171.538 189.307 280.836  0.00  0.00    -0.010 A 
HETATM    3  N           1     170.923 187.989 278.909  0.00  0.00    -0.359 N 
ATOM      4  HN          1     170.349 187.852 278.077  1.00  0.00     0.166 HD
HETATM    5  C           1     171.861 187.091 279.280  0.00  0.00     0.077 A 
HETATM    6  C           1     172.665 187.232 280.400  0.00  0.00     0.004 A 
HETATM    7  C           1     172.497 188.364 281.191  0.00  0.00     0.025 A 
ENDROOT
BRANCH   6   8
HETATM    8  C           1     173.686 186.195 280.750  0.00  0.00     0.311 C 
BRANCH   8   9
HETATM    9  N           1     173.112 185.244 281.662  0.00  0.00     0.089 N 
HETATM   10  H           1     172.364 185.691 282.193  0.00  0.00     0.316 HD
BRANCH   9  11
HETATM   11  C           1     174.150 184.818 282.561  0.00  0.00     0.300 C 
BRANCH  11  12
HETATM   12  C           1     174.943 186.030 283.032  0.00  0.00     0.302 C 
BRANCH  12  13
HETATM   13  N           1     174.871 186.123 284.465  0.00  0.00     0.093 N 
HETATM   14  C           1     173.591 186.776 284.788  0.00  0.00     0.302 C 
HETATM   15  C           1     173.248 186.721 286.294  0.00  0.00     0.302 C 
HETATM   16  N           1     173.249 185.350 286.832  0.00  0.00     0.087 N 
HETATM   17  C           1     173.165 185.463 288.263  0.00  0.00     0.310 C 
HETATM   18  C           1     174.530 184.697 286.509  0.00  0.00     0.302 C 
HETATM   19  C           1     174.872 184.752 285.005  0.00  0.00     0.302 C 
ENDBRANCH  12  13
ENDBRANCH  11  12
ENDBRANCH   9  11
ENDBRANCH   8   9
ENDBRANCH   6   8
BRANCH   5  20
HETATM   20  S           1     172.083 185.612 278.250  0.00  0.00    -0.107 SA
BRANCH  20  21
HETATM   21  C           1     172.690 186.546 276.817  0.00  0.00     0.119 C 
BRANCH  21  22
HETATM   22  C           1     174.117 186.180 276.550  0.00  0.00    -0.049 A 
HETATM   23  C           1     175.137 186.755 277.308  0.00  0.00     0.008 A 
HETATM   24  C           1     176.468 186.415 277.058  0.00  0.00     0.001 A 
HETATM   25  C           1     176.776 185.499 276.052  0.00  0.00     0.000 A 
HETATM   26  C           1     175.756 184.924 275.295  0.00  0.00     0.001 A 
HETATM   27  C           1     174.426 185.265 275.543  0.00  0.00     0.008 A 
ENDBRANCH  21  22
ENDBRANCH  20  21
ENDBRANCH   5  20
BRANCH   2  28
HETATM   28  C           1     171.351 190.407 281.573  0.00  0.00    -0.025 A 
HETATM   29  C           1     170.368 190.425 282.562  0.00  0.00     0.012 A 
HETATM   30  C           1     170.173 191.571 283.332  0.00  0.00     0.001 A 
HETATM   31  C           1     170.961 192.700 283.112  0.00  0.00     0.000 A 
HETATM   32  C           1     171.944 192.684 282.122  0.00  0.00     0.001 A 
HETATM   33  C           1     172.139 191.537 281.353  0.00  0.00     0.012 A 
ENDBRANCH   2  28
TORSDOF 9
ENDMDL
MODEL 5
REMARK VINA RESULT:      -7.5      3.037      6.536
REMARK  9 active torsions:
REMARK  status: ('A' for Active; 'I' for Inactive)
REMARK    1  A    between atoms: C_2  and  C_18 
REMARK    2  A    between atoms: C_5  and  S_9 
REMARK    3  A    between atoms: C_6  and  C_8 
REMARK    4  A    between atoms: C_8  and  N_17 
REMARK    5  A    between atoms: S_9  and  C_10 
REMARK    6  A    between atoms: C_10  and  C_11 
REMARK    7  A    between atoms: N_17  and  C_19 
REMARK    8  A    between atoms: C_19  and  C_20 
REMARK    9  A    between atoms: C_20  and  N_21 
ROOT
HETATM    1  C           1     176.091 184.787 271.551  0.00  0.00     0.101 A 
HETATM    2  C           1     175.574 185.565 272.575  0.00  0.00    -0.010 A 
HETATM    3  N           1     175.529 184.686 270.326  0.00  0.00    -0.359 N 
ATOM      4  HN          1     175.937 184.102 269.596  1.00  0.00     0.166 HD
HETATM    5  C           1     174.400 185.398 270.119  0.00  0.00     0.077 A 
HETATM    6  C           1     173.808 186.203 271.078  0.00  0.00     0.004 A 
HETATM    7  C           1     174.409 186.286 272.330  0.00  0.00     0.025 A 
ENDROOT
BRANCH   6   8
HETATM    8  C           1     172.554 186.964 270.777  0.00  0.00     0.311 C 
BRANCH   8   9
HETATM    9  N           1     172.802 188.372 270.918  0.00  0.00     0.089 N 
HETATM   10  H           1     173.475 188.526 271.669  0.00  0.00     0.316 HD
BRANCH   9  11
HETATM   11  C           1     171.555 189.004 271.256  0.00  0.00     0.300 C 
BRANCH  11  12
HETATM   12  C           1     171.663 190.504 271.015  0.00  0.00     0.302 C 
BRANCH  12  13
HETATM   13  N           1     172.819 191.018 271.700  0.00  0.00     0.093 N 
HETATM   14  C           1     173.222 192.248 270.996  0.00  0.00     0.302 C 
HETATM   15  C           1     174.294 193.056 271.761  0.00  0.00     0.302 C 
HETATM   16  N           1     173.889 193.388 273.137  0.00  0.00     0.087 N 
HETATM   17  C           1     175.052 193.909 273.802  0.00  0.00     0.310 C 
HETATM   18  C           1     173.485 192.157 273.841  0.00  0.00     0.302 C 
HETATM   19  C           1     172.414 191.350 273.076  0.00  0.00     0.302 C 
ENDBRANCH  12  13
ENDBRANCH  11  12
ENDBRANCH   9  11
ENDBRANCH   8   9
ENDBRANCH   6   8
BRANCH   5  20
HETATM   20  S           1     173.612 185.292 268.486  0.00  0.00    -0.107 SA
BRANCH  20  21
HETATM   21  C           1     174.778 186.446 267.709  0.00  0.00     0.119 C 
BRANCH  21  22
HETATM   22  C           1     174.172 187.814 267.664  0.00  0.00    -0.049 A 
HETATM   23  C           1     172.873 187.987 267.185  0.00  0.00     0.008 A 
HETATM   24  C           1     172.309 189.262 267.143  0.00  0.00     0.001 A 
HETATM   25  C           1     173.044 190.364 267.580  0.00  0.00     0.000 A 
HETATM   26  C           1     174.343 190.192 268.058  0.00  0.00     0.001 A 
HETATM   27  C           1     174.907 188.917 268.100  0.00  0.00     0.008 A 
ENDBRANCH  21  22
ENDBRANCH  20  21
ENDBRANCH   5  20
BRANCH   2  28
HETATM   28  C           1     176.178 185.621 273.766  0.00  0.00    -0.025 A 
HETATM   29  C           1     177.377 186.319 273.908  0.00  0.00     0.012 A 
HETATM   30  C           1     178.006 186.379 275.151  0.00  0.00     0.001 A 
HETATM   31  C           1     177.438 185.739 276.252  0.00  0.00     0.000 A 
HETATM   32  C           1     176.238 185.040 276.111  0.00  0.00     0.001 A 
HETATM   33  C           1     175.608 184.981 274.867  0.00  0.00     0.012 A 
ENDBRANCH   2  28
TORSDOF 9
ENDMDL
MODEL 6
REMARK VINA RESULT:      -7.5      2.718      4.008
REMARK  9 active torsions:
REMARK  status: ('A' for Active; 'I' for Inactive)
REMARK    1  A    between atoms: C_2  and  C_18 
REMARK    2  A    between atoms: C_5  and  S_9 
REMARK    3  A    between atoms: C_6  and  C_8 
REMARK    4  A    between atoms: C_8  and  N_17 
REMARK    5  A    between atoms: S_9  and  C_10 
REMARK    6  A    between atoms: C_10  and  C_11 
REMARK    7  A    between atoms: N_17  and  C_19 
REMARK    8  A    between atoms: C_19  and  C_20 
REMARK    9  A    between atoms: C_20  and  N_21 
ROOT
HETATM    1  C           1     175.468 187.178 271.868  0.00  0.00     0.101 A 
HETATM    2  C           1     175.919 185.962 272.356  0.00  0.00    -0.010 A 
HETATM    3  N           1     175.075 187.377 270.591  0.00  0.00    -0.359 N 
ATOM      4  HN          1     174.749 188.287 270.265  1.00  0.00     0.166 HD
HETATM    5  C           1     175.137 186.308 269.766  0.00  0.00     0.077 A 
HETATM    6  C           1     175.574 185.053 270.161  0.00  0.00     0.004 A 
HETATM    7  C           1     175.972 184.881 271.482  0.00  0.00     0.025 A 
ENDROOT
BRANCH   6   8
HETATM    8  C           1     175.615 183.913 269.191  0.00  0.00     0.311 C 
BRANCH   8   9
HETATM    9  N           1     174.850 182.813 269.711  0.00  0.00     0.089 N 
HETATM   10  H           1     175.128 181.952 269.239  0.00  0.00     0.316 HD
BRANCH   9  11
HETATM   11  C           1     173.463 183.079 269.443  0.00  0.00     0.300 C 
BRANCH  11  12
HETATM   12  C           1     172.685 183.092 270.753  0.00  0.00     0.302 C 
BRANCH  12  13
HETATM   13  N           1     171.741 184.177 270.739  0.00  0.00     0.093 N 
HETATM   14  C           1     172.257 185.205 271.660  0.00  0.00     0.302 C 
HETATM   15  C           1     171.487 186.540 271.565  0.00  0.00     0.302 C 
HETATM   16  N           1     171.448 187.083 270.196  0.00  0.00     0.087 N 
HETATM   17  C           1     170.509 188.172 270.205  0.00  0.00     0.310 C 
HETATM   18  C           1     170.932 186.055 269.275  0.00  0.00     0.302 C 
HETATM   19  C           1     171.701 184.720 269.371  0.00  0.00     0.302 C 
ENDBRANCH  12  13
ENDBRANCH  11  12
ENDBRANCH   9  11
ENDBRANCH   8   9
ENDBRANCH   6   8
BRANCH   5  20
HETATM   20  S           1     174.618 186.529 268.041  0.00  0.00    -0.107 SA
BRANCH  20  21
HETATM   21  C           1     174.754 188.338 268.098  0.00  0.00     0.119 C 
BRANCH  21  22
HETATM   22  C           1     173.457 188.951 267.674  0.00  0.00    -0.049 A 
HETATM   23  C           1     173.144 190.255 268.055  0.00  0.00     0.008 A 
HETATM   24  C           1     171.933 190.827 267.660  0.00  0.00     0.001 A 
HETATM   25  C           1     171.037 190.092 266.883  0.00  0.00     0.000 A 
HETATM   26  C           1     171.349 188.788 266.502  0.00  0.00     0.001 A 
HETATM   27  C           1     172.559 188.216 266.898  0.00  0.00     0.008 A 
ENDBRANCH  21  22
ENDBRANCH  20  21
ENDBRANCH   5  20
BRANCH   2  28
HETATM   28  C           1     176.295 185.832 273.633  0.00  0.00    -0.025 A 
HETATM   29  C           1     177.524 186.338 274.053  0.00  0.00     0.012 A 
HETATM   30  C           1     177.916 186.203 275.384  0.00  0.00     0.001 A 
HETATM   31  C           1     177.078 185.562 276.296  0.00  0.00     0.000 A 
HETATM   32  C           1     175.847 185.055 275.877  0.00  0.00     0.001 A 
HETATM   33  C           1     175.456 185.191 274.545  0.00  0.00     0.012 A 
ENDBRANCH   2  28
TORSDOF 9
ENDMDL
MODEL 7
REMARK VINA RESULT:      -7.4      3.469      7.270
REMARK  9 active torsions:
REMARK  status: ('A' for Active; 'I' for Inactive)
REMARK    1  A    between atoms: C_2  and  C_18 
REMARK    2  A    between atoms: C_5  and  S_9 
REMARK    3  A    between atoms: C_6  and  C_8 
REMARK    4  A    between atoms: C_8  and  N_17 
REMARK    5  A    between atoms: S_9  and  C_10 
REMARK    6  A    between atoms: C_10  and  C_11 
REMARK    7  A    between atoms: N_17  and  C_19 
REMARK    8  A    between atoms: C_19  and  C_20 
REMARK    9  A    between atoms: C_20  and  N_21 
ROOT
HETATM    1  C           1     175.698 185.120 271.642  0.00  0.00     0.101 A 
HETATM    2  C           1     175.928 186.161 272.527  0.00  0.00    -0.010 A 
HETATM    3  N           1     175.286 185.293 270.367  0.00  0.00    -0.359 N 
ATOM      4  HN          1     175.127 184.502 269.743  1.00  0.00     0.166 HD
HETATM    5  C           1     175.096 186.567 269.961  0.00  0.00     0.077 A 
HETATM    6  C           1     175.299 187.674 270.771  0.00  0.00     0.004 A 
HETATM    7  C           1     175.723 187.463 272.079  0.00  0.00     0.025 A 
ENDROOT
BRANCH   6   8
HETATM    8  C           1     175.068 189.059 270.252  0.00  0.00     0.311 C 
BRANCH   8   9
HETATM    9  N           1     176.028 189.956 270.835  0.00  0.00     0.089 N 
HETATM   10  H           1     176.126 189.750 271.830  0.00  0.00     0.316 HD
BRANCH   9  11
HETATM   11  C           1     175.532 191.295 270.670  0.00  0.00     0.300 C 
BRANCH  11  12
HETATM   12  C           1     174.012 191.289 270.757  0.00  0.00     0.302 C 
BRANCH  12  13
HETATM   13  N           1     173.596 192.013 271.928  0.00  0.00     0.093 N 
HETATM   14  C           1     173.513 191.037 273.028  0.00  0.00     0.302 C 
HETATM   15  C           1     173.326 191.700 274.410  0.00  0.00     0.302 C 
HETATM   16  N           1     174.367 192.696 274.715  0.00  0.00     0.087 N 
HETATM   17  C           1     173.940 193.401 275.893  0.00  0.00     0.310 C 
HETATM   18  C           1     174.450 193.672 273.614  0.00  0.00     0.302 C 
HETATM   19  C           1     174.637 193.009 272.233  0.00  0.00     0.302 C 
ENDBRANCH  12  13
ENDBRANCH  11  12
ENDBRANCH   9  11
ENDBRANCH   8   9
ENDBRANCH   6   8
BRANCH   5  20
HETATM   20  S           1     174.543 186.848 268.255  0.00  0.00    -0.107 SA
BRANCH  20  21
HETATM   21  C           1     175.210 185.273 267.646  0.00  0.00     0.119 C 
BRANCH  21  22
HETATM   22  C           1     174.935 185.147 266.180  0.00  0.00    -0.049 A 
HETATM   23  C           1     173.655 185.399 265.686  0.00  0.00     0.008 A 
HETATM   24  C           1     173.398 185.281 264.320  0.00  0.00     0.001 A 
HETATM   25  C           1     174.423 184.912 263.448  0.00  0.00     0.000 A 
HETATM   26  C           1     175.703 184.661 263.941  0.00  0.00     0.001 A 
HETATM   27  C           1     175.959 184.777 265.308  0.00  0.00     0.008 A 
ENDBRANCH  21  22
ENDBRANCH  20  21
ENDBRANCH   5  20
BRANCH   2  28
HETATM   28  C           1     176.335 185.922 273.778  0.00  0.00    -0.025 A 
HETATM   29  C           1     175.511 185.221 274.657  0.00  0.00     0.012 A 
HETATM   30  C           1     175.935 184.970 275.961  0.00  0.00     0.001 A 
HETATM   31  C           1     177.184 185.421 276.387  0.00  0.00     0.000 A 
HETATM   32  C           1     178.010 186.123 275.508  0.00  0.00     0.001 A 
HETATM   33  C           1     177.585 186.373 274.203  0.00  0.00     0.012 A 
ENDBRANCH   2  28
TORSDOF 9
ENDMDL
MODEL 8
REMARK VINA RESULT:      -7.3      2.934      8.764
REMARK  9 active torsions:
REMARK  status: ('A' for Active; 'I' for Inactive)
REMARK    1  A    between atoms: C_2  and  C_18 
REMARK    2  A    between atoms: C_5  and  S_9 
REMARK    3  A    between atoms: C_6  and  C_8 
REMARK    4  A    between atoms: C_8  and  N_17 
REMARK    5  A    between atoms: S_9  and  C_10 
REMARK    6  A    between atoms: C_10  and  C_11 
REMARK    7  A    between atoms: N_17  and  C_19 
REMARK    8  A    between atoms: C_19  and  C_20 
REMARK    9  A    between atoms: C_20  and  N_21 
ROOT
HETATM    1  C           1     176.019 183.995 268.754  0.00  0.00     0.101 A 
HETATM    2  C           1     175.861 184.822 267.653  0.00  0.00    -0.010 A 
HETATM    3  N           1     175.690 184.350 270.015  0.00  0.00    -0.359 N 
ATOM      4  HN          1     175.821 183.715 270.802  1.00  0.00     0.166 HD
HETATM    5  C           1     175.179 185.590 270.180  0.00  0.00     0.077 A 
HETATM    6  C           1     174.983 186.488 269.144  0.00  0.00     0.004 A 
HETATM    7  C           1     175.332 186.094 267.856  0.00  0.00     0.025 A 
ENDROOT
BRANCH   6   8
HETATM    8  C           1     174.410 187.847 269.402  0.00  0.00     0.311 C 
BRANCH   8   9
HETATM    9  N           1     175.315 188.850 268.910  0.00  0.00     0.089 N 
HETATM   10  H           1     176.215 188.758 269.382  0.00  0.00     0.316 HD
BRANCH   9  11
HETATM   11  C           1     174.746 190.137 269.209  0.00  0.00     0.300 C 
BRANCH  11  12
HETATM   12  C           1     175.363 190.679 270.492  0.00  0.00     0.302 C 
BRANCH  12  13
HETATM   13  N           1     174.356 191.365 271.256  0.00  0.00     0.093 N 
HETATM   14  C           1     174.890 192.703 271.565  0.00  0.00     0.302 C 
HETATM   15  C           1     173.828 193.652 272.163  0.00  0.00     0.302 C 
HETATM   16  N           1     172.633 193.785 271.312  0.00  0.00     0.087 N 
HETATM   17  C           1     171.643 194.482 272.088  0.00  0.00     0.310 C 
HETATM   18  C           1     172.100 192.447 271.003  0.00  0.00     0.302 C 
HETATM   19  C           1     173.161 191.498 270.405  0.00  0.00     0.302 C 
ENDBRANCH  12  13
ENDBRANCH  11  12
ENDBRANCH   9  11
ENDBRANCH   8   9
ENDBRANCH   6   8
BRANCH   5  20
HETATM   20  S           1     174.721 186.109 271.859  0.00  0.00    -0.107 SA
BRANCH  20  21
HETATM   21  C           1     176.436 186.420 272.367  0.00  0.00     0.119 C 
BRANCH  21  22
HETATM   22  C           1     176.615 186.014 273.796  0.00  0.00    -0.049 A 
HETATM   23  C           1     175.603 185.317 274.455  0.00  0.00     0.008 A 
HETATM   24  C           1     175.770 184.939 275.788  0.00  0.00     0.001 A 
HETATM   25  C           1     176.950 185.259 276.461  0.00  0.00     0.000 A 
HETATM   26  C           1     177.962 185.956 275.802  0.00  0.00     0.001 A 
HETATM   27  C           1     177.795 186.334 274.469  0.00  0.00     0.008 A 
ENDBRANCH  21  22
ENDBRANCH  20  21
ENDBRANCH   5  20
BRANCH   2  28
HETATM   28  C           1     176.208 184.410 266.430  0.00  0.00    -0.025 A 
HETATM   29  C           1     177.140 183.385 266.277  0.00  0.00     0.012 A 
HETATM   30  C           1     177.501 182.955 265.001  0.00  0.00     0.001 A 
HETATM   31  C           1     176.930 183.550 263.877  0.00  0.00     0.000 A 
HETATM   32  C           1     175.997 184.577 264.028  0.00  0.00     0.001 A 
HETATM   33  C           1     175.636 185.006 265.305  0.00  0.00     0.012 A 
ENDBRANCH   2  28
TORSDOF 9
ENDMDL
MODEL 9
REMARK VINA RESULT:      -7.0     15.791     20.566
REMARK  9 active torsions:
REMARK  status: ('A' for Active; 'I' for Inactive)
REMARK    1  A    between atoms: C_2  and  C_18 
REMARK    2  A    between atoms: C_5  and  S_9 
REMARK    3  A    between atoms: C_6  and  C_8 
REMARK    4  A    between atoms: C_8  and  N_17 
REMARK    5  A    between atoms: S_9  and  C_10 
REMARK    6  A    between atoms: C_10  and  C_11 
REMARK    7  A    between atoms: N_17  and  C_19 
REMARK    8  A    between atoms: C_19  and  C_20 
REMARK    9  A    between atoms: C_20  and  N_21 
ROOT
HETATM    1  C           1     171.808 184.816 287.009  0.00  0.00     0.101 A 
HETATM    2  C           1     172.181 185.817 286.126  0.00  0.00    -0.010 A 
HETATM    3  N           1     170.942 184.999 288.030  0.00  0.00    -0.359 N 
ATOM      4  HN          1     170.691 184.238 288.662  1.00  0.00     0.166 HD
HETATM    5  C           1     170.427 186.239 288.171  0.00  0.00     0.077 A 
HETATM    6  C           1     170.739 187.303 287.340  0.00  0.00     0.004 A 
HETATM    7  C           1     171.633 187.084 286.298  0.00  0.00     0.025 A 
ENDROOT
BRANCH   6   8
HETATM    8  C           1     170.128 188.653 287.557  0.00  0.00     0.311 C 
BRANCH   8   9
HETATM    9  N           1     169.022 188.830 286.656  0.00  0.00     0.089 N 
HETATM   10  H           1     169.357 188.790 285.693  0.00  0.00     0.316 HD
BRANCH   9  11
HETATM   11  C           1     168.453 190.126 286.912  0.00  0.00     0.300 C 
BRANCH  11  12
HETATM   12  C           1     168.638 191.013 285.687  0.00  0.00     0.302 C 
BRANCH  12  13
HETATM   13  N           1     168.192 192.346 285.989  0.00  0.00     0.093 N 
HETATM   14  C           1     168.232 192.489 287.455  0.00  0.00     0.302 C 
HETATM   15  C           1     168.024 193.946 287.924  0.00  0.00     0.302 C 
HETATM   16  N           1     168.977 194.888 287.313  0.00  0.00     0.087 N 
HETATM   17  C           1     168.521 196.213 287.634  0.00  0.00     0.310 C 
HETATM   18  C           1     168.937 194.744 285.847  0.00  0.00     0.302 C 
HETATM   19  C           1     169.144 193.288 285.378  0.00  0.00     0.302 C 
ENDBRANCH  12  13
ENDBRANCH  11  12
ENDBRANCH   9  11
ENDBRANCH   8   9
ENDBRANCH   6   8
BRANCH   5  20
HETATM   20  S           1     169.258 186.530 289.530  0.00  0.00    -0.107 SA
BRANCH  20  21
HETATM   21  C           1     170.469 187.418 290.550  0.00  0.00     0.119 C 
BRANCH  21  22
HETATM   22  C           1     171.659 186.543 290.789  0.00  0.00    -0.049 A 
HETATM   23  C           1     171.556 185.442 291.639  0.00  0.00     0.008 A 
HETATM   24  C           1     172.666 184.626 291.863  0.00  0.00     0.001 A 
HETATM   25  C           1     173.878 184.912 291.235  0.00  0.00     0.000 A 
HETATM   26  C           1     173.982 186.013 290.386  0.00  0.00     0.001 A 
HETATM   27  C           1     172.872 186.829 290.163  0.00  0.00     0.008 A 
ENDBRANCH  21  22
ENDBRANCH  20  21
ENDBRANCH   5  20
BRANCH   2  28
HETATM   28  C           1     173.045 185.571 285.135  0.00  0.00    -0.025 A 
HETATM   29  C           1     174.416 185.586 285.386  0.00  0.00     0.012 A 
HETATM   30  C           1     175.317 185.329 284.354  0.00  0.00     0.001 A 
HETATM   31  C           1     174.847 185.057 283.069  0.00  0.00     0.000 A 
HETATM   32  C           1     173.474 185.042 282.817  0.00  0.00     0.001 A 
HETATM   33  C           1     172.573 185.299 283.851  0.00  0.00     0.012 A 
ENDBRANCH   2  28
TORSDOF 9
ENDMDL
