MODEL 1
REMARK VINA RESULT:      -9.3      0.000      0.000
REMARK  10 active torsions:
REMARK  status: ('A' for Active; 'I' for Inactive)
REMARK    1  A    between atoms: C_4  and  S_28 
REMARK    2  A    between atoms: C_5  and  C_7 
REMARK    3  A    between atoms: C_7  and  N_8 
REMARK    4  A    between atoms: N_8  and  C_9 
REMARK    5  A    between atoms: C_9  and  C_10 
REMARK    6  A    between atoms: C_10  and  C_11 
REMARK    7  A    between atoms: N_14  and  C_17 
REMARK    8  A    between atoms: C_21  and  O_36 
REMARK    9  A    between atoms: S_28  and  C_35 
REMARK   10  A    between atoms: C_29  and  C_35 
ROOT
HETATM    1  C           1     171.588 189.329 280.964  0.00  0.00    -0.008 A 
HETATM    2  C           1     170.799 188.996 279.874  0.00  0.00     0.130 A 
HETATM    3  N           1     171.022 187.923 279.085  0.00  0.00    -0.253 NA
HETATM    4  C           1     172.083 187.148 279.401  0.00  0.00     0.101 A 
HETATM    5  C           1     172.929 187.400 280.470  0.00  0.00     0.006 A 
HETATM    6  C           1     172.673 188.512 281.264  0.00  0.00     0.025 A 
HETATM    7  C           1     171.314 190.406 281.705  0.00  0.00    -0.024 A 
HETATM    8  C           1     172.045 191.581 281.528  0.00  0.00     0.015 A 
HETATM    9  C           1     171.758 192.705 282.302  0.00  0.00     0.037 A 
HETATM   10  C           1     170.742 192.655 283.255  0.00  0.00     0.068 A 
HETATM   11  C           1     170.010 191.480 283.433  0.00  0.00     0.037 A 
HETATM   12  C           1     170.296 190.357 282.659  0.00  0.00     0.015 A 
ENDROOT
BRANCH   5  13
HETATM   13  C           1     174.088 186.497 280.761  0.00  0.00     0.311 C 
BRANCH  13  14
HETATM   14  N           1     175.064 187.206 281.543  0.00  0.00     0.087 N 
HETATM   15  H           1     175.831 187.505 280.941  0.00  0.00     0.316 HD
BRANCH  14  16
HETATM   16  C           1     175.565 186.299 282.541  0.00  0.00     0.270 C 
BRANCH  16  17
HETATM   17  C           1     174.667 185.069 282.606  0.00  0.00     0.034 C 
BRANCH  17  18
HETATM   18  C           1     174.104 184.924 284.013  0.00  0.00    -0.010 C 
HETATM   19  C           1     175.161 185.362 285.023  0.00  0.00     0.035 C 
HETATM   20  C           1     174.585 185.422 286.437  0.00  0.00     0.273 C 
HETATM   21  N           1     173.406 186.287 286.499  0.00  0.00     0.093 N 
HETATM   22  C           1     172.357 185.828 285.588  0.00  0.00     0.273 C 
HETATM   23  C           1     172.851 185.783 284.143  0.00  0.00     0.035 C 
BRANCH  21  24
HETATM   24  C           1     172.902 186.174 287.840  0.00  0.00     0.223 C 
HETATM   25  C           1     173.978 185.664 288.786  0.00  0.00     0.036 C 
HETATM   26  C           1     173.637 186.259 290.153  0.00  0.00     0.002 C 
HETATM   27  C           1     172.545 187.298 289.908  0.00  0.00     0.002 C 
HETATM   28  C           1     172.554 187.540 288.407  0.00  0.00     0.036 C 
ENDBRANCH  21  24
ENDBRANCH  17  18
ENDBRANCH  16  17
ENDBRANCH  14  16
ENDBRANCH  13  14
ENDBRANCH   5  13
BRANCH   4  29
HETATM   29  S           1     172.420 185.695 278.367  0.00  0.00    -0.105 SA
BRANCH  29  30
HETATM   30  C           1     173.000 186.677 276.955  0.00  0.00     0.119 C 
BRANCH  30  31
HETATM   31  C           1     174.385 186.244 276.582  0.00  0.00    -0.049 A 
HETATM   32  C           1     174.573 185.313 275.560  0.00  0.00     0.008 A 
HETATM   33  C           1     175.863 184.910 275.213  0.00  0.00     0.001 A 
HETATM   34  C           1     176.964 185.439 275.887  0.00  0.00     0.000 A 
HETATM   35  C           1     176.776 186.370 276.908  0.00  0.00     0.001 A 
HETATM   36  C           1     175.485 186.773 277.255  0.00  0.00     0.008 A 
ENDBRANCH  30  31
ENDBRANCH  29  30
ENDBRANCH   4  29
BRANCH  10  37
HETATM   37  O           1     170.463 193.747 284.008  0.00  0.00    -0.356 OA
HETATM   38  C           1     169.573 193.425 285.042  0.00  0.00     0.210 C 
ENDBRANCH  10  37
TORSDOF 10
ENDMDL
MODEL 2
REMARK VINA RESULT:      -8.6      2.359      9.049
REMARK  10 active torsions:
REMARK  status: ('A' for Active; 'I' for Inactive)
REMARK    1  A    between atoms: C_4  and  S_28 
REMARK    2  A    between atoms: C_5  and  C_7 
REMARK    3  A    between atoms: C_7  and  N_8 
REMARK    4  A    between atoms: N_8  and  C_9 
REMARK    5  A    between atoms: C_9  and  C_10 
REMARK    6  A    between atoms: C_10  and  C_11 
REMARK    7  A    between atoms: N_14  and  C_17 
REMARK    8  A    between atoms: C_21  and  O_36 
REMARK    9  A    between atoms: S_28  and  C_35 
REMARK   10  A    between atoms: C_29  and  C_35 
ROOT
HETATM    1  C           1     172.664 189.438 282.477  0.00  0.00    -0.008 A 
HETATM    2  C           1     173.576 189.277 283.509  0.00  0.00     0.130 A 
HETATM    3  N           1     174.517 188.309 283.536  0.00  0.00    -0.253 NA
HETATM    4  C           1     174.546 187.463 282.483  0.00  0.00     0.101 A 
HETATM    5  C           1     173.678 187.544 281.406  0.00  0.00     0.006 A 
HETATM    6  C           1     172.720 188.552 281.407  0.00  0.00     0.025 A 
HETATM    7  C           1     171.757 190.418 282.511  0.00  0.00    -0.024 A 
HETATM    8  C           1     170.440 190.139 282.879  0.00  0.00     0.015 A 
HETATM    9  C           1     169.493 191.161 282.914  0.00  0.00     0.037 A 
HETATM   10  C           1     169.861 192.464 282.580  0.00  0.00     0.068 A 
HETATM   11  C           1     171.178 192.745 282.211  0.00  0.00     0.037 A 
HETATM   12  C           1     172.124 191.722 282.177  0.00  0.00     0.015 A 
ENDROOT
BRANCH   5  13
HETATM   13  C           1     173.769 186.571 280.271  0.00  0.00     0.311 C 
BRANCH  13  14
HETATM   14  N           1     172.472 186.002 280.021  0.00  0.00     0.087 N 
HETATM   15  H           1     172.308 185.232 280.669  0.00  0.00     0.316 HD
BRANCH  14  16
HETATM   16  C           1     172.468 185.503 278.672  0.00  0.00     0.270 C 
BRANCH  16  17
HETATM   17  C           1     173.489 186.272 277.843  0.00  0.00     0.034 C 
BRANCH  17  18
HETATM   18  C           1     173.549 185.685 276.439  0.00  0.00    -0.010 C 
HETATM   19  C           1     172.910 186.663 275.458  0.00  0.00     0.035 C 
HETATM   20  C           1     173.117 186.214 274.013  0.00  0.00     0.273 C 
HETATM   21  N           1     174.535 186.016 273.711  0.00  0.00     0.093 N 
HETATM   22  C           1     175.138 185.021 274.599  0.00  0.00     0.273 C 
HETATM   23  C           1     175.005 185.426 276.065  0.00  0.00     0.035 C 
BRANCH  21  24
HETATM   24  C           1     174.586 185.496 272.372  0.00  0.00     0.223 C 
HETATM   25  C           1     175.913 184.801 272.108  0.00  0.00     0.036 C 
HETATM   26  C           1     175.610 183.723 271.068  0.00  0.00     0.002 C 
HETATM   27  C           1     174.089 183.645 270.961  0.00  0.00     0.002 C 
HETATM   28  C           1     173.565 184.388 272.179  0.00  0.00     0.036 C 
ENDBRANCH  21  24
ENDBRANCH  17  18
ENDBRANCH  16  17
ENDBRANCH  14  16
ENDBRANCH  13  14
ENDBRANCH   5  13
BRANCH   4  29
HETATM   29  S           1     175.795 186.146 282.478  0.00  0.00    -0.105 SA
BRANCH  29  30
HETATM   30  C           1     174.581 184.820 282.720  0.00  0.00     0.119 C 
BRANCH  30  31
HETATM   31  C           1     174.064 184.866 284.125  0.00  0.00    -0.049 A 
HETATM   32  C           1     172.725 185.175 284.366  0.00  0.00     0.008 A 
HETATM   33  C           1     172.245 185.219 285.675  0.00  0.00     0.001 A 
HETATM   34  C           1     173.102 184.952 286.743  0.00  0.00     0.000 A 
HETATM   35  C           1     174.441 184.644 286.502  0.00  0.00     0.001 A 
HETATM   36  C           1     174.922 184.601 285.192  0.00  0.00     0.008 A 
ENDBRANCH  30  31
ENDBRANCH  29  30
ENDBRANCH   4  29
BRANCH  10  37
HETATM   37  O           1     168.941 193.459 282.613  0.00  0.00    -0.356 OA
HETATM   38  C           1     167.854 193.105 283.425  0.00  0.00     0.210 C 
ENDBRANCH  10  37
TORSDOF 10
ENDMDL
MODEL 3
REMARK VINA RESULT:      -8.4      8.630     12.299
REMARK  10 active torsions:
REMARK  status: ('A' for Active; 'I' for Inactive)
REMARK    1  A    between atoms: C_4  and  S_28 
REMARK    2  A    between atoms: C_5  and  C_7 
REMARK    3  A    between atoms: C_7  and  N_8 
REMARK    4  A    between atoms: N_8  and  C_9 
REMARK    5  A    between atoms: C_9  and  C_10 
REMARK    6  A    between atoms: C_10  and  C_11 
REMARK    7  A    between atoms: N_14  and  C_17 
REMARK    8  A    between atoms: C_21  and  O_36 
REMARK    9  A    between atoms: S_28  and  C_35 
REMARK   10  A    between atoms: C_29  and  C_35 
ROOT
HETATM    1  C           1     175.433 185.514 272.335  0.00  0.00    -0.008 A 
HETATM    2  C           1     176.084 184.816 271.329  0.00  0.00     0.130 A 
HETATM    3  N           1     175.572 184.628 270.093  0.00  0.00    -0.253 NA
HETATM    4  C           1     174.354 185.162 269.854  0.00  0.00     0.101 A 
HETATM    5  C           1     173.627 185.875 270.795  0.00  0.00     0.006 A 
HETATM    6  C           1     174.181 186.052 272.058  0.00  0.00     0.025 A 
HETATM    7  C           1     175.995 185.665 273.538  0.00  0.00    -0.024 A 
HETATM    8  C           1     175.589 184.861 274.604  0.00  0.00     0.015 A 
HETATM    9  C           1     176.175 185.019 275.859  0.00  0.00     0.037 A 
HETATM   10  C           1     177.166 185.981 276.051  0.00  0.00     0.068 A 
HETATM   11  C           1     177.572 186.786 274.985  0.00  0.00     0.037 A 
HETATM   12  C           1     176.986 186.627 273.730  0.00  0.00     0.015 A 
ENDROOT
BRANCH   5  13
HETATM   13  C           1     172.281 186.439 270.459  0.00  0.00     0.311 C 
BRANCH  13  14
HETATM   14  N           1     171.491 186.539 271.656  0.00  0.00     0.087 N 
HETATM   15  H           1     170.683 185.921 271.583  0.00  0.00     0.316 HD
BRANCH  14  16
HETATM   16  C           1     171.042 187.901 271.769  0.00  0.00     0.270 C 
BRANCH  16  17
HETATM   17  C           1     171.637 188.727 270.635  0.00  0.00     0.034 C 
BRANCH  17  18
HETATM   18  C           1     172.410 189.904 271.216  0.00  0.00    -0.010 C 
HETATM   19  C           1     171.502 191.130 271.256  0.00  0.00     0.035 C 
HETATM   20  C           1     172.163 192.284 272.007  0.00  0.00     0.273 C 
HETATM   21  N           1     172.568 191.884 273.355  0.00  0.00     0.093 N 
HETATM   22  C           1     173.501 190.757 273.320  0.00  0.00     0.273 C 
HETATM   23  C           1     172.890 189.546 272.618  0.00  0.00     0.035 C 
BRANCH  21  24
HETATM   24  C           1     173.265 193.012 273.910  0.00  0.00     0.223 C 
HETATM   25  C           1     173.987 192.629 275.193  0.00  0.00     0.036 C 
HETATM   26  C           1     175.198 193.559 275.274  0.00  0.00     0.002 C 
HETATM   27  C           1     175.293 194.260 273.921  0.00  0.00     0.002 C 
HETATM   28  C           1     174.391 193.461 272.994  0.00  0.00     0.036 C 
ENDBRANCH  21  24
ENDBRANCH  17  18
ENDBRANCH  16  17
ENDBRANCH  14  16
ENDBRANCH  13  14
ENDBRANCH   5  13
BRANCH   4  29
HETATM   29  S           1     173.628 184.933 268.206  0.00  0.00    -0.105 SA
BRANCH  29  30
HETATM   30  C           1     174.735 186.133 267.414  0.00  0.00     0.119 C 
BRANCH  30  31
HETATM   31  C           1     174.100 187.489 267.438  0.00  0.00    -0.049 A 
HETATM   32  C           1     172.824 187.672 266.904  0.00  0.00     0.008 A 
HETATM   33  C           1     172.233 188.935 266.925  0.00  0.00     0.001 A 
HETATM   34  C           1     172.917 190.016 267.482  0.00  0.00     0.000 A 
HETATM   35  C           1     174.193 189.834 268.016  0.00  0.00     0.001 A 
HETATM   36  C           1     174.784 188.570 267.994  0.00  0.00     0.008 A 
ENDBRANCH  30  31
ENDBRANCH  29  30
ENDBRANCH   4  29
BRANCH  10  37
HETATM   37  O           1     177.735 186.135 277.271  0.00  0.00    -0.356 OA
HETATM   38  C           1     178.819 185.260 277.429  0.00  0.00     0.210 C 
ENDBRANCH  10  37
TORSDOF 10
ENDMDL
MODEL 4
REMARK VINA RESULT:      -8.4      6.591     10.942
REMARK  10 active torsions:
REMARK  status: ('A' for Active; 'I' for Inactive)
REMARK    1  A    between atoms: C_4  and  S_28 
REMARK    2  A    between atoms: C_5  and  C_7 
REMARK    3  A    between atoms: C_7  and  N_8 
REMARK    4  A    between atoms: N_8  and  C_9 
REMARK    5  A    between atoms: C_9  and  C_10 
REMARK    6  A    between atoms: C_10  and  C_11 
REMARK    7  A    between atoms: N_14  and  C_17 
REMARK    8  A    between atoms: C_21  and  O_36 
REMARK    9  A    between atoms: S_28  and  C_35 
REMARK   10  A    between atoms: C_29  and  C_35 
ROOT
HETATM    1  C           1     175.267 185.286 272.361  0.00  0.00    -0.008 A 
HETATM    2  C           1     175.904 184.541 271.380  0.00  0.00     0.130 A 
HETATM    3  N           1     175.360 184.267 270.175  0.00  0.00    -0.253 NA
HETATM    4  C           1     174.124 184.760 269.941  0.00  0.00     0.101 A 
HETATM    5  C           1     173.410 185.514 270.858  0.00  0.00     0.006 A 
HETATM    6  C           1     173.996 185.781 272.090  0.00  0.00     0.025 A 
HETATM    7  C           1     175.861 185.523 273.535  0.00  0.00    -0.024 A 
HETATM    8  C           1     175.505 184.778 274.660  0.00  0.00     0.015 A 
HETATM    9  C           1     176.124 185.025 275.884  0.00  0.00     0.037 A 
HETATM   10  C           1     177.098 186.017 275.986  0.00  0.00     0.068 A 
HETATM   11  C           1     177.455 186.763 274.861  0.00  0.00     0.037 A 
HETATM   12  C           1     176.836 186.515 273.637  0.00  0.00     0.015 A 
ENDROOT
BRANCH   5  13
HETATM   13  C           1     172.042 186.029 270.530  0.00  0.00     0.311 C 
BRANCH  13  14
HETATM   14  N           1     172.114 187.438 270.250  0.00  0.00     0.087 N 
HETATM   15  H           1     173.088 187.740 270.276  0.00  0.00     0.316 HD
BRANCH  14  16
HETATM   16  C           1     171.373 188.124 271.274  0.00  0.00     0.270 C 
BRANCH  16  17
HETATM   17  C           1     172.260 189.179 271.922  0.00  0.00     0.034 C 
BRANCH  17  18
HETATM   18  C           1     172.291 188.961 273.429  0.00  0.00    -0.010 C 
HETATM   19  C           1     171.372 187.795 273.786  0.00  0.00     0.035 C 
HETATM   20  C           1     171.514 187.408 275.257  0.00  0.00     0.273 C 
HETATM   21  N           1     172.904 187.107 275.600  0.00  0.00     0.093 N 
HETATM   22  C           1     173.780 188.248 275.332  0.00  0.00     0.273 C 
HETATM   23  C           1     173.722 188.667 273.865  0.00  0.00     0.035 C 
BRANCH  21  24
HETATM   24  C           1     172.919 186.866 277.017  0.00  0.00     0.223 C 
HETATM   25  C           1     171.703 187.486 277.688  0.00  0.00     0.036 C 
HETATM   26  C           1     171.421 186.612 278.910  0.00  0.00     0.002 C 
HETATM   27  C           1     172.300 185.372 278.764  0.00  0.00     0.002 C 
HETATM   28  C           1     172.770 185.384 277.318  0.00  0.00     0.036 C 
ENDBRANCH  21  24
ENDBRANCH  17  18
ENDBRANCH  16  17
ENDBRANCH  14  16
ENDBRANCH  13  14
ENDBRANCH   5  13
BRANCH   4  29
HETATM   29  S           1     173.355 184.414 268.333  0.00  0.00    -0.105 SA
BRANCH  29  30
HETATM   30  C           1     174.548 185.418 267.405  0.00  0.00     0.119 C 
BRANCH  30  31
HETATM   31  C           1     174.135 186.857 267.453  0.00  0.00    -0.049 A 
HETATM   32  C           1     174.944 187.794 268.096  0.00  0.00     0.008 A 
HETATM   33  C           1     174.559 189.134 268.141  0.00  0.00     0.001 A 
HETATM   34  C           1     173.365 189.537 267.542  0.00  0.00     0.000 A 
HETATM   35  C           1     172.556 188.600 266.899  0.00  0.00     0.001 A 
HETATM   36  C           1     172.942 187.259 266.854  0.00  0.00     0.008 A 
ENDBRANCH  30  31
ENDBRANCH  29  30
ENDBRANCH   4  29
BRANCH  10  37
HETATM   37  O           1     177.700 186.258 277.176  0.00  0.00    -0.356 OA
HETATM   38  C           1     178.746 185.351 277.399  0.00  0.00     0.210 C 
ENDBRANCH  10  37
TORSDOF 10
ENDMDL
MODEL 5
REMARK VINA RESULT:      -8.2      9.235     16.204
REMARK  10 active torsions:
REMARK  status: ('A' for Active; 'I' for Inactive)
REMARK    1  A    between atoms: C_4  and  S_28 
REMARK    2  A    between atoms: C_5  and  C_7 
REMARK    3  A    between atoms: C_7  and  N_8 
REMARK    4  A    between atoms: N_8  and  C_9 
REMARK    5  A    between atoms: C_9  and  C_10 
REMARK    6  A    between atoms: C_10  and  C_11 
REMARK    7  A    between atoms: N_14  and  C_17 
REMARK    8  A    between atoms: C_21  and  O_36 
REMARK    9  A    between atoms: S_28  and  C_35 
REMARK   10  A    between atoms: C_29  and  C_35 
ROOT
HETATM    1  C           1     175.584 185.745 272.662  0.00  0.00    -0.008 A 
HETATM    2  C           1     174.558 186.627 272.362  0.00  0.00     0.130 A 
HETATM    3  N           1     173.911 186.652 271.177  0.00  0.00    -0.253 NA
HETATM    4  C           1     174.310 185.754 270.250  0.00  0.00     0.101 A 
HETATM    5  C           1     175.326 184.833 270.457  0.00  0.00     0.006 A 
HETATM    6  C           1     175.973 184.832 271.687  0.00  0.00     0.025 A 
HETATM    7  C           1     176.184 185.772 273.856  0.00  0.00    -0.024 A 
HETATM    8  C           1     177.428 186.388 273.999  0.00  0.00     0.015 A 
HETATM    9  C           1     178.054 186.416 275.244  0.00  0.00     0.037 A 
HETATM   10  C           1     177.438 185.826 276.348  0.00  0.00     0.068 A 
HETATM   11  C           1     176.195 185.209 276.206  0.00  0.00     0.037 A 
HETATM   12  C           1     175.568 185.182 274.960  0.00  0.00     0.015 A 
ENDROOT
BRANCH   5  13
HETATM   13  C           1     175.715 183.865 269.382  0.00  0.00     0.311 C 
BRANCH  13  14
HETATM   14  N           1     177.098 184.061 269.039  0.00  0.00     0.087 N 
HETATM   15  H           1     177.543 184.652 269.741  0.00  0.00     0.316 HD
BRANCH  14  16
HETATM   16  C           1     177.141 184.720 267.762  0.00  0.00     0.270 C 
BRANCH  16  17
HETATM   17  C           1     177.442 183.698 266.672  0.00  0.00     0.034 C 
BRANCH  17  18
HETATM   18  C           1     176.753 184.116 265.380  0.00  0.00    -0.010 C 
HETATM   19  C           1     176.777 182.948 264.398  0.00  0.00     0.035 C 
HETATM   20  C           1     175.932 183.246 263.161  0.00  0.00     0.273 C 
HETATM   21  N           1     174.559 183.600 263.524  0.00  0.00     0.093 N 
HETATM   22  C           1     174.523 184.768 264.405  0.00  0.00     0.273 C 
HETATM   23  C           1     175.316 184.527 265.687  0.00  0.00     0.035 C 
BRANCH  21  24
HETATM   24  C           1     173.904 183.957 262.295  0.00  0.00     0.223 C 
HETATM   25  C           1     172.541 183.291 262.190  0.00  0.00     0.036 C 
HETATM   26  C           1     171.689 184.235 261.342  0.00  0.00     0.002 C 
HETATM   27  C           1     172.485 185.530 261.209  0.00  0.00     0.002 C 
HETATM   28  C           1     173.573 185.440 262.267  0.00  0.00     0.036 C 
ENDBRANCH  21  24
ENDBRANCH  17  18
ENDBRANCH  16  17
ENDBRANCH  14  16
ENDBRANCH  13  14
ENDBRANCH   5  13
BRANCH   4  29
HETATM   29  S           1     173.468 185.752 268.642  0.00  0.00    -0.105 SA
BRANCH  29  30
HETATM   30  C           1     174.307 187.252 268.059  0.00  0.00     0.119 C 
BRANCH  30  31
HETATM   31  C           1     173.286 188.267 267.646  0.00  0.00    -0.049 A 
HETATM   32  C           1     173.447 189.604 268.007  0.00  0.00     0.008 A 
HETATM   33  C           1     172.496 190.550 267.623  0.00  0.00     0.001 A 
HETATM   34  C           1     171.384 190.157 266.877  0.00  0.00     0.000 A 
HETATM   35  C           1     171.223 188.819 266.516  0.00  0.00     0.001 A 
HETATM   36  C           1     172.175 187.874 266.901  0.00  0.00     0.008 A 
ENDBRANCH  30  31
ENDBRANCH  29  30
ENDBRANCH   4  29
BRANCH  10  37
HETATM   37  O           1     178.047 185.853 277.558  0.00  0.00    -0.356 OA
HETATM   38  C           1     179.150 184.989 277.581  0.00  0.00     0.210 C 
ENDBRANCH  10  37
TORSDOF 10
ENDMDL
MODEL 6
REMARK VINA RESULT:      -8.1      3.018      7.131
REMARK  10 active torsions:
REMARK  status: ('A' for Active; 'I' for Inactive)
REMARK    1  A    between atoms: C_4  and  S_28 
REMARK    2  A    between atoms: C_5  and  C_7 
REMARK    3  A    between atoms: C_7  and  N_8 
REMARK    4  A    between atoms: N_8  and  C_9 
REMARK    5  A    between atoms: C_9  and  C_10 
REMARK    6  A    between atoms: C_10  and  C_11 
REMARK    7  A    between atoms: N_14  and  C_17 
REMARK    8  A    between atoms: C_21  and  O_36 
REMARK    9  A    between atoms: S_28  and  C_35 
REMARK   10  A    between atoms: C_29  and  C_35 
ROOT
HETATM    1  C           1     173.280 186.900 276.096  0.00  0.00    -0.008 A 
HETATM    2  C           1     172.113 187.583 275.788  0.00  0.00     0.130 A 
HETATM    3  N           1     171.189 187.943 276.706  0.00  0.00    -0.253 NA
HETATM    4  C           1     171.444 187.603 277.988  0.00  0.00     0.101 A 
HETATM    5  C           1     172.581 186.921 278.392  0.00  0.00     0.006 A 
HETATM    6  C           1     173.514 186.565 277.425  0.00  0.00     0.025 A 
HETATM    7  C           1     174.154 186.573 275.140  0.00  0.00    -0.024 A 
HETATM    8  C           1     174.188 185.271 274.641  0.00  0.00     0.015 A 
HETATM    9  C           1     175.101 184.930 273.644  0.00  0.00     0.037 A 
HETATM   10  C           1     175.982 185.889 273.146  0.00  0.00     0.068 A 
HETATM   11  C           1     175.950 187.192 273.646  0.00  0.00     0.037 A 
HETATM   12  C           1     175.036 187.533 274.642  0.00  0.00     0.015 A 
ENDROOT
BRANCH   5  13
HETATM   13  C           1     172.798 186.578 279.834  0.00  0.00     0.311 C 
BRANCH  13  14
HETATM   14  N           1     174.037 187.154 280.283  0.00  0.00     0.087 N 
HETATM   15  H           1     174.816 186.706 279.801  0.00  0.00     0.316 HD
BRANCH  14  16
HETATM   16  C           1     174.144 186.909 281.696  0.00  0.00     0.270 C 
BRANCH  16  17
HETATM   17  C           1     173.792 185.456 281.987  0.00  0.00     0.034 C 
BRANCH  17  18
HETATM   18  C           1     173.291 185.332 283.421  0.00  0.00    -0.010 C 
HETATM   19  C           1     174.462 184.976 284.332  0.00  0.00     0.035 C 
HETATM   20  C           1     174.055 185.030 285.803  0.00  0.00     0.273 C 
HETATM   21  N           1     173.491 186.333 286.155  0.00  0.00     0.093 N 
HETATM   22  C           1     172.320 186.649 285.337  0.00  0.00     0.273 C 
HETATM   23  C           1     172.662 186.654 283.848  0.00  0.00     0.035 C 
BRANCH  21  24
HETATM   24  C           1     173.054 186.221 287.520  0.00  0.00     0.223 C 
HETATM   25  C           1     174.166 185.681 288.406  0.00  0.00     0.036 C 
HETATM   26  C           1     173.909 186.272 289.792  0.00  0.00     0.002 C 
HETATM   27  C           1     172.830 187.337 289.611  0.00  0.00     0.002 C 
HETATM   28  C           1     172.766 187.590 288.113  0.00  0.00     0.036 C 
ENDBRANCH  21  24
ENDBRANCH  17  18
ENDBRANCH  16  17
ENDBRANCH  14  16
ENDBRANCH  13  14
ENDBRANCH   5  13
BRANCH   4  29
HETATM   29  S           1     170.229 188.067 279.254  0.00  0.00    -0.105 SA
BRANCH  29  30
HETATM   30  C           1     170.496 189.849 279.037  0.00  0.00     0.119 C 
BRANCH  30  31
HETATM   31  C           1     170.917 190.453 280.341  0.00  0.00    -0.049 A 
HETATM   32  C           1     171.487 189.650 281.330  0.00  0.00     0.008 A 
HETATM   33  C           1     171.879 190.213 282.544  0.00  0.00     0.001 A 
HETATM   34  C           1     171.703 191.579 282.770  0.00  0.00     0.000 A 
HETATM   35  C           1     171.133 192.381 281.781  0.00  0.00     0.001 A 
HETATM   36  C           1     170.741 191.817 280.566  0.00  0.00     0.008 A 
ENDBRANCH  30  31
ENDBRANCH  29  30
ENDBRANCH   4  29
BRANCH  10  37
HETATM   37  O           1     176.870 185.558 272.178  0.00  0.00    -0.356 OA
HETATM   38  C           1     176.234 184.882 271.128  0.00  0.00     0.210 C 
ENDBRANCH  10  37
TORSDOF 10
ENDMDL
MODEL 7
REMARK VINA RESULT:      -8.1      5.936     12.388
REMARK  10 active torsions:
REMARK  status: ('A' for Active; 'I' for Inactive)
REMARK    1  A    between atoms: C_4  and  S_28 
REMARK    2  A    between atoms: C_5  and  C_7 
REMARK    3  A    between atoms: C_7  and  N_8 
REMARK    4  A    between atoms: N_8  and  C_9 
REMARK    5  A    between atoms: C_9  and  C_10 
REMARK    6  A    between atoms: C_10  and  C_11 
REMARK    7  A    between atoms: N_14  and  C_17 
REMARK    8  A    between atoms: C_21  and  O_36 
REMARK    9  A    between atoms: S_28  and  C_35 
REMARK   10  A    between atoms: C_29  and  C_35 
ROOT
HETATM    1  C           1     173.411 186.478 277.517  0.00  0.00    -0.008 A 
HETATM    2  C           1     172.366 187.227 277.000  0.00  0.00     0.130 A 
HETATM    3  N           1     172.056 187.278 275.686  0.00  0.00    -0.253 NA
HETATM    4  C           1     172.827 186.547 274.853  0.00  0.00     0.101 A 
HETATM    5  C           1     173.893 185.767 275.275  0.00  0.00     0.006 A 
HETATM    6  C           1     174.187 185.734 276.633  0.00  0.00     0.025 A 
HETATM    7  C           1     173.666 186.470 278.828  0.00  0.00    -0.024 A 
HETATM    8  C           1     174.708 187.243 279.342  0.00  0.00     0.015 A 
HETATM    9  C           1     174.974 187.234 280.711  0.00  0.00     0.037 A 
HETATM   10  C           1     174.200 186.453 281.567  0.00  0.00     0.068 A 
HETATM   11  C           1     173.158 185.679 281.054  0.00  0.00     0.037 A 
HETATM   12  C           1     172.891 185.688 279.686  0.00  0.00     0.015 A 
ENDROOT
BRANCH   5  13
HETATM   13  C           1     174.705 184.980 274.293  0.00  0.00     0.311 C 
BRANCH  13  14
HETATM   14  N           1     176.068 185.437 274.323  0.00  0.00     0.087 N 
HETATM   15  H           1     176.144 186.241 274.947  0.00  0.00     0.316 HD
BRANCH  14  16
HETATM   16  C           1     176.425 185.833 272.987  0.00  0.00     0.270 C 
BRANCH  16  17
HETATM   17  C           1     175.507 185.138 271.989  0.00  0.00     0.034 C 
BRANCH  17  18
HETATM   18  C           1     176.008 185.394 270.574  0.00  0.00    -0.010 C 
HETATM   19  C           1     176.815 184.187 270.102  0.00  0.00     0.035 C 
HETATM   20  C           1     177.176 184.307 268.623  0.00  0.00     0.273 C 
HETATM   21  N           1     175.986 184.501 267.795  0.00  0.00     0.093 N 
HETATM   22  C           1     175.247 185.701 268.192  0.00  0.00     0.273 C 
HETATM   23  C           1     174.815 185.633 269.655  0.00  0.00     0.035 C 
BRANCH  21  24
HETATM   24  C           1     176.464 184.705 266.455  0.00  0.00     0.223 C 
HETATM   25  C           1     177.123 183.446 265.913  0.00  0.00     0.036 C 
HETATM   26  C           1     176.913 183.492 264.400  0.00  0.00     0.002 C 
HETATM   27  C           1     175.919 184.622 264.138  0.00  0.00     0.002 C 
HETATM   28  C           1     175.309 184.938 265.495  0.00  0.00     0.036 C 
ENDBRANCH  21  24
ENDBRANCH  17  18
ENDBRANCH  16  17
ENDBRANCH  14  16
ENDBRANCH  13  14
ENDBRANCH   5  13
BRANCH   4  29
HETATM   29  S           1     172.446 186.586 273.079  0.00  0.00    -0.105 SA
BRANCH  29  30
HETATM   30  C           1     172.586 188.392 272.960  0.00  0.00     0.119 C 
BRANCH  30  31
HETATM   31  C           1     173.501 188.749 271.830  0.00  0.00    -0.049 A 
HETATM   32  C           1     172.995 188.873 270.536  0.00  0.00     0.008 A 
HETATM   33  C           1     173.848 189.205 269.483  0.00  0.00     0.001 A 
HETATM   34  C           1     175.206 189.414 269.724  0.00  0.00     0.000 A 
HETATM   35  C           1     175.712 189.289 271.018  0.00  0.00     0.001 A 
HETATM   36  C           1     174.858 188.957 272.071  0.00  0.00     0.008 A 
ENDBRANCH  30  31
ENDBRANCH  29  30
ENDBRANCH   4  29
BRANCH  10  37
HETATM   37  O           1     174.458 186.444 282.897  0.00  0.00    -0.356 OA
HETATM   38  C           1     173.734 185.429 283.539  0.00  0.00     0.210 C 
ENDBRANCH  10  37
TORSDOF 10
ENDMDL
MODEL 8
REMARK VINA RESULT:      -8.0      3.698      8.909
REMARK  10 active torsions:
REMARK  status: ('A' for Active; 'I' for Inactive)
REMARK    1  A    between atoms: C_4  and  S_28 
REMARK    2  A    between atoms: C_5  and  C_7 
REMARK    3  A    between atoms: C_7  and  N_8 
REMARK    4  A    between atoms: N_8  and  C_9 
REMARK    5  A    between atoms: C_9  and  C_10 
REMARK    6  A    between atoms: C_10  and  C_11 
REMARK    7  A    between atoms: N_14  and  C_17 
REMARK    8  A    between atoms: C_21  and  O_36 
REMARK    9  A    between atoms: S_28  and  C_35 
REMARK   10  A    between atoms: C_29  and  C_35 
ROOT
HETATM    1  C           1     173.134 186.613 280.906  0.00  0.00    -0.008 A 
HETATM    2  C           1     174.323 186.905 280.256  0.00  0.00     0.130 A 
HETATM    3  N           1     174.445 186.986 278.913  0.00  0.00    -0.253 NA
HETATM    4  C           1     173.326 186.763 278.189  0.00  0.00     0.101 A 
HETATM    5  C           1     172.093 186.465 278.748  0.00  0.00     0.006 A 
HETATM    6  C           1     171.999 186.389 280.133  0.00  0.00     0.025 A 
HETATM    7  C           1     173.080 186.547 282.239  0.00  0.00    -0.024 A 
HETATM    8  C           1     173.082 185.307 282.878  0.00  0.00     0.015 A 
HETATM    9  C           1     173.026 185.239 284.270  0.00  0.00     0.037 A 
HETATM   10  C           1     172.966 186.411 285.024  0.00  0.00     0.068 A 
HETATM   11  C           1     172.963 187.652 284.385  0.00  0.00     0.037 A 
HETATM   12  C           1     173.020 187.720 282.994  0.00  0.00     0.015 A 
ENDROOT
BRANCH   5  13
HETATM   13  C           1     170.894 186.231 277.881  0.00  0.00     0.311 C 
BRANCH  13  14
HETATM   14  N           1     169.752 186.890 278.455  0.00  0.00     0.087 N 
HETATM   15  H           1     169.046 186.196 278.700  0.00  0.00     0.316 HD
BRANCH  14  16
HETATM   16  C           1     169.220 187.783 277.461  0.00  0.00     0.270 C 
BRANCH  16  17
HETATM   17  C           1     169.708 187.356 276.082  0.00  0.00     0.034 C 
BRANCH  17  18
HETATM   18  C           1     170.023 188.592 275.249  0.00  0.00    -0.010 C 
HETATM   19  C           1     170.878 189.549 276.076  0.00  0.00     0.035 C 
HETATM   20  C           1     171.384 190.713 275.227  0.00  0.00     0.273 C 
HETATM   21  N           1     172.112 190.240 274.049  0.00  0.00     0.093 N 
HETATM   22  C           1     171.274 189.383 273.210  0.00  0.00     0.273 C 
HETATM   23  C           1     170.763 188.169 273.984  0.00  0.00     0.035 C 
BRANCH  21  24
HETATM   24  C           1     172.439 191.414 273.286  0.00  0.00     0.223 C 
HETATM   25  C           1     172.898 192.544 274.195  0.00  0.00     0.036 C 
HETATM   26  C           1     173.862 193.380 273.354  0.00  0.00     0.002 C 
HETATM   27  C           1     174.141 192.570 272.089  0.00  0.00     0.002 C 
HETATM   28  C           1     173.646 191.166 272.397  0.00  0.00     0.036 C 
ENDBRANCH  21  24
ENDBRANCH  17  18
ENDBRANCH  16  17
ENDBRANCH  14  16
ENDBRANCH  13  14
ENDBRANCH   5  13
BRANCH   4  29
HETATM   29  S           1     173.444 186.862 276.380  0.00  0.00    -0.105 SA
BRANCH  29  30
HETATM   30  C           1     174.423 185.341 276.235  0.00  0.00     0.119 C 
BRANCH  30  31
HETATM   31  C           1     175.786 185.673 275.708  0.00  0.00    -0.049 A 
HETATM   32  C           1     175.944 186.056 274.376  0.00  0.00     0.008 A 
HETATM   33  C           1     177.213 186.364 273.886  0.00  0.00     0.001 A 
HETATM   34  C           1     178.324 186.290 274.728  0.00  0.00     0.000 A 
HETATM   35  C           1     178.165 185.906 276.059  0.00  0.00     0.001 A 
HETATM   36  C           1     176.895 185.598 276.549  0.00  0.00     0.008 A 
ENDBRANCH  30  31
ENDBRANCH  29  30
ENDBRANCH   4  29
BRANCH  10  37
HETATM   37  O           1     172.910 186.345 286.376  0.00  0.00    -0.356 OA
HETATM   38  C           1     173.250 185.062 286.828  0.00  0.00     0.210 C 
ENDBRANCH  10  37
TORSDOF 10
ENDMDL
MODEL 9
REMARK VINA RESULT:      -8.0      7.943     13.296
REMARK  10 active torsions:
REMARK  status: ('A' for Active; 'I' for Inactive)
REMARK    1  A    between atoms: C_4  and  S_28 
REMARK    2  A    between atoms: C_5  and  C_7 
REMARK    3  A    between atoms: C_7  and  N_8 
REMARK    4  A    between atoms: N_8  and  C_9 
REMARK    5  A    between atoms: C_9  and  C_10 
REMARK    6  A    between atoms: C_10  and  C_11 
REMARK    7  A    between atoms: N_14  and  C_17 
REMARK    8  A    between atoms: C_21  and  O_36 
REMARK    9  A    between atoms: S_28  and  C_35 
REMARK   10  A    between atoms: C_29  and  C_35 
ROOT
HETATM    1  C           1     175.389 185.122 271.789  0.00  0.00    -0.008 A 
HETATM    2  C           1     175.699 183.826 271.406  0.00  0.00     0.130 A 
HETATM    3  N           1     175.528 183.352 270.153  0.00  0.00    -0.253 NA
HETATM    4  C           1     175.024 184.214 269.242  0.00  0.00     0.101 A 
HETATM    5  C           1     174.685 185.526 269.530  0.00  0.00     0.006 A 
HETATM    6  C           1     174.873 185.986 270.829  0.00  0.00     0.025 A 
HETATM    7  C           1     175.583 185.530 273.047  0.00  0.00    -0.024 A 
HETATM    8  C           1     174.504 185.610 273.928  0.00  0.00     0.015 A 
HETATM    9  C           1     174.706 186.036 275.240  0.00  0.00     0.037 A 
HETATM   10  C           1     175.985 186.383 275.672  0.00  0.00     0.068 A 
HETATM   11  C           1     177.065 186.304 274.791  0.00  0.00     0.037 A 
HETATM   12  C           1     176.863 185.877 273.479  0.00  0.00     0.015 A 
ENDROOT
BRANCH   5  13
HETATM   13  C           1     174.131 186.426 268.468  0.00  0.00     0.311 C 
BRANCH  13  14
HETATM   14  N           1     175.140 187.366 268.061  0.00  0.00     0.087 N 
HETATM   15  H           1     175.759 187.562 268.848  0.00  0.00     0.316 HD
BRANCH  14  16
HETATM   16  C           1     174.473 188.577 267.664  0.00  0.00     0.270 C 
BRANCH  16  17
HETATM   17  C           1     173.319 188.858 268.619  0.00  0.00     0.034 C 
BRANCH  17  18
HETATM   18  C           1     173.681 190.030 269.522  0.00  0.00    -0.010 C 
HETATM   19  C           1     172.527 191.028 269.533  0.00  0.00     0.035 C 
HETATM   20  C           1     172.754 192.126 270.572  0.00  0.00     0.273 C 
HETATM   21  N           1     172.977 191.564 271.904  0.00  0.00     0.093 N 
HETATM   22  C           1     174.131 190.663 271.919  0.00  0.00     0.273 C 
HETATM   23  C           1     173.955 189.513 270.930  0.00  0.00     0.035 C 
BRANCH  21  24
HETATM   24  C           1     173.282 192.679 272.758  0.00  0.00     0.223 C 
HETATM   25  C           1     173.537 192.219 274.185  0.00  0.00     0.036 C 
HETATM   26  C           1     174.511 193.238 274.776  0.00  0.00     0.002 C 
HETATM   27  C           1     174.997 194.094 273.609  0.00  0.00     0.002 C 
HETATM   28  C           1     174.596 193.327 272.358  0.00  0.00     0.036 C 
ENDBRANCH  21  24
ENDBRANCH  17  18
ENDBRANCH  16  17
ENDBRANCH  14  16
ENDBRANCH  13  14
ENDBRANCH   5  13
BRANCH   4  29
HETATM   29  S           1     174.778 183.618 267.546  0.00  0.00    -0.105 SA
BRANCH  29  30
HETATM   30  C           1     176.553 183.554 267.176  0.00  0.00     0.119 C 
BRANCH  30  31
HETATM   31  C           1     176.754 183.531 265.692  0.00  0.00    -0.049 A 
HETATM   32  C           1     177.582 182.568 265.115  0.00  0.00     0.008 A 
HETATM   33  C           1     177.770 182.548 263.733  0.00  0.00     0.001 A 
HETATM   34  C           1     177.128 183.489 262.928  0.00  0.00     0.000 A 
HETATM   35  C           1     176.299 184.452 263.505  0.00  0.00     0.001 A 
HETATM   36  C           1     176.113 184.472 264.888  0.00  0.00     0.008 A 
ENDBRANCH  30  31
ENDBRANCH  29  30
ENDBRANCH   4  29
BRANCH  10  37
HETATM   37  O           1     176.181 186.797 276.948  0.00  0.00    -0.356 OA
HETATM   38  C           1     174.969 186.841 277.650  0.00  0.00     0.210 C 
ENDBRANCH  10  37
TORSDOF 10
ENDMDL
