MODEL 1
REMARK VINA RESULT:      -9.2      0.000      0.000
REMARK  10 active torsions:
REMARK  status: ('A' for Active; 'I' for Inactive)
REMARK    1  A    between atoms: C_1  and  C_19 
REMARK    2  A    between atoms: C_5  and  S_29 
REMARK    3  A    between atoms: C_6  and  C_8 
REMARK    4  A    between atoms: C_8  and  N_9 
REMARK    5  A    between atoms: N_9  and  C_10 
REMARK    6  A    between atoms: C_10  and  C_11 
REMARK    7  A    between atoms: C_11  and  C_12 
REMARK    8  A    between atoms: N_15  and  C_18 
REMARK    9  A    between atoms: S_29  and  C_36 
REMARK   10  A    between atoms: C_30  and  C_36 
ROOT
HETATM    1  C           1     171.701 189.378 281.002  0.00  0.00    -0.010 A 
HETATM    2  C           1     170.895 189.009 279.935  0.00  0.00     0.101 A 
HETATM    3  N           1     171.108 187.911 279.178  0.00  0.00    -0.359 N 
ATOM      4  HN          1     170.494 187.669 278.400  1.00  0.00     0.166 HD
HETATM    5  C           1     172.176 187.149 279.502  0.00  0.00     0.077 A 
HETATM    6  C           1     173.039 187.435 280.549  0.00  0.00     0.004 A 
HETATM    7  C           1     172.792 188.573 281.311  0.00  0.00     0.025 A 
ENDROOT
BRANCH   6   8
HETATM    8  C           1     174.203 186.544 280.851  0.00  0.00     0.311 C 
BRANCH   8   9
HETATM    9  N           1     175.094 187.210 281.762  0.00  0.00     0.087 N 
HETATM   10  H           1     175.830 187.681 281.235  0.00  0.00     0.316 HD
BRANCH   9  11
HETATM   11  C           1     175.677 186.208 282.612  0.00  0.00     0.270 C 
BRANCH  11  12
HETATM   12  C           1     174.758 184.995 282.673  0.00  0.00     0.034 C 
BRANCH  12  13
HETATM   13  C           1     174.184 184.864 284.078  0.00  0.00    -0.010 C 
HETATM   14  C           1     175.213 185.359 285.089  0.00  0.00     0.035 C 
HETATM   15  C           1     174.618 185.432 286.494  0.00  0.00     0.273 C 
HETATM   16  N           1     173.411 186.259 286.523  0.00  0.00     0.093 N 
HETATM   17  C           1     172.388 185.745 285.611  0.00  0.00     0.273 C 
HETATM   18  C           1     172.901 185.684 284.173  0.00  0.00     0.035 C 
BRANCH  16  19
HETATM   19  C           1     172.894 186.161 287.861  0.00  0.00     0.223 C 
HETATM   20  C           1     173.971 185.694 288.828  0.00  0.00     0.036 C 
HETATM   21  C           1     173.601 186.306 290.178  0.00  0.00     0.002 C 
HETATM   22  C           1     172.490 187.316 289.902  0.00  0.00     0.002 C 
HETATM   23  C           1     172.510 187.529 288.397  0.00  0.00     0.036 C 
ENDBRANCH  16  19
ENDBRANCH  12  13
ENDBRANCH  11  12
ENDBRANCH   9  11
ENDBRANCH   8   9
ENDBRANCH   6   8
BRANCH   5  24
HETATM   24  S           1     172.500 185.664 278.510  0.00  0.00    -0.107 SA
BRANCH  24  25
HETATM   25  C           1     172.984 186.602 277.034  0.00  0.00     0.119 C 
BRANCH  25  26
HETATM   26  C           1     174.369 186.207 276.622  0.00  0.00    -0.049 A 
HETATM   27  C           1     175.474 186.781 277.249  0.00  0.00     0.008 A 
HETATM   28  C           1     176.763 186.412 276.866  0.00  0.00     0.001 A 
HETATM   29  C           1     176.947 185.469 275.853  0.00  0.00     0.000 A 
HETATM   30  C           1     175.842 184.895 275.226  0.00  0.00     0.001 A 
HETATM   31  C           1     174.552 185.264 275.610  0.00  0.00     0.008 A 
ENDBRANCH  25  26
ENDBRANCH  24  25
ENDBRANCH   5  24
BRANCH   1  32
HETATM   32  C           1     171.437 190.478 281.714  0.00  0.00    -0.025 A 
HETATM   33  C           1     172.156 191.650 281.480  0.00  0.00     0.012 A 
HETATM   34  C           1     171.879 192.797 282.223  0.00  0.00     0.001 A 
HETATM   35  C           1     170.884 192.774 283.198  0.00  0.00     0.000 A 
HETATM   36  C           1     170.163 191.602 283.432  0.00  0.00     0.001 A 
HETATM   37  C           1     170.440 190.455 282.689  0.00  0.00     0.012 A 
ENDBRANCH   1  32
TORSDOF 10
ENDMDL
MODEL 2
REMARK VINA RESULT:      -8.9      9.046     12.677
REMARK  10 active torsions:
REMARK  status: ('A' for Active; 'I' for Inactive)
REMARK    1  A    between atoms: C_1  and  C_19 
REMARK    2  A    between atoms: C_5  and  S_29 
REMARK    3  A    between atoms: C_6  and  C_8 
REMARK    4  A    between atoms: C_8  and  N_9 
REMARK    5  A    between atoms: N_9  and  C_10 
REMARK    6  A    between atoms: C_10  and  C_11 
REMARK    7  A    between atoms: C_11  and  C_12 
REMARK    8  A    between atoms: N_15  and  C_18 
REMARK    9  A    between atoms: S_29  and  C_36 
REMARK   10  A    between atoms: C_30  and  C_36 
ROOT
HETATM    1  C           1     175.172 185.354 272.170  0.00  0.00    -0.010 A 
HETATM    2  C           1     175.769 185.999 271.098  0.00  0.00     0.101 A 
HETATM    3  N           1     175.299 185.944 269.832  0.00  0.00    -0.359 N 
ATOM      4  HN          1     175.764 186.432 269.067  1.00  0.00     0.166 HD
HETATM    5  C           1     174.183 185.210 269.632  0.00  0.00     0.077 A 
HETATM    6  C           1     173.516 184.529 270.639  0.00  0.00     0.004 A 
HETATM    7  C           1     174.024 184.606 271.932  0.00  0.00     0.025 A 
ENDROOT
BRANCH   6   8
HETATM    8  C           1     172.282 183.735 270.343  0.00  0.00     0.311 C 
BRANCH   8   9
HETATM    9  N           1     171.273 184.032 271.322  0.00  0.00     0.087 N 
HETATM   10  H           1     170.612 183.257 271.377  0.00  0.00     0.316 HD
BRANCH   9  11
HETATM   11  C           1     170.585 185.219 270.893  0.00  0.00     0.270 C 
BRANCH  11  12
HETATM   12  C           1     170.180 186.040 272.112  0.00  0.00     0.034 C 
BRANCH  12  13
HETATM   13  C           1     170.980 187.336 272.139  0.00  0.00    -0.010 C 
HETATM   14  C           1     172.052 187.242 273.220  0.00  0.00     0.035 C 
HETATM   15  C           1     173.005 188.434 273.160  0.00  0.00     0.273 C 
HETATM   16  N           1     173.607 188.572 271.833  0.00  0.00     0.093 N 
HETATM   17  C           1     172.587 188.740 270.798  0.00  0.00     0.273 C 
HETATM   18  C           1     171.618 187.560 270.771  0.00  0.00     0.035 C 
BRANCH  16  19
HETATM   19  C           1     174.390 189.777 271.876  0.00  0.00     0.223 C 
HETATM   20  C           1     175.605 189.671 270.967  0.00  0.00     0.036 C 
HETATM   21  C           1     175.906 191.099 270.517  0.00  0.00     0.002 C 
HETATM   22  C           1     174.713 191.947 270.952  0.00  0.00     0.002 C 
HETATM   23  C           1     173.618 190.948 271.294  0.00  0.00     0.036 C 
ENDBRANCH  16  19
ENDBRANCH  12  13
ENDBRANCH  11  12
ENDBRANCH   9  11
ENDBRANCH   8   9
ENDBRANCH   6   8
BRANCH   5  24
HETATM   24  S           1     173.518 185.108 267.947  0.00  0.00    -0.107 SA
BRANCH  24  25
HETATM   25  C           1     174.555 186.458 267.319  0.00  0.00     0.119 C 
BRANCH  25  26
HETATM   26  C           1     173.767 187.731 267.310  0.00  0.00    -0.049 A 
HETATM   27  C           1     174.379 188.933 267.665  0.00  0.00     0.008 A 
HETATM   28  C           1     173.645 190.119 267.657  0.00  0.00     0.001 A 
HETATM   29  C           1     172.298 190.103 267.294  0.00  0.00     0.000 A 
HETATM   30  C           1     171.686 188.901 266.939  0.00  0.00     0.001 A 
HETATM   31  C           1     172.420 187.715 266.948  0.00  0.00     0.008 A 
ENDBRANCH  25  26
ENDBRANCH  24  25
ENDBRANCH   5  24
BRANCH   1  32
HETATM   32  C           1     175.687 185.448 273.400  0.00  0.00    -0.025 A 
HETATM   33  C           1     174.981 184.942 274.492  0.00  0.00     0.012 A 
HETATM   34  C           1     175.518 185.041 275.775  0.00  0.00     0.001 A 
HETATM   35  C           1     176.761 185.643 275.967  0.00  0.00     0.000 A 
HETATM   36  C           1     177.467 186.149 274.875  0.00  0.00     0.001 A 
HETATM   37  C           1     176.930 186.051 273.592  0.00  0.00     0.012 A 
ENDBRANCH   1  32
TORSDOF 10
ENDMDL
MODEL 3
REMARK VINA RESULT:      -8.6      2.362      9.335
REMARK  10 active torsions:
REMARK  status: ('A' for Active; 'I' for Inactive)
REMARK    1  A    between atoms: C_1  and  C_19 
REMARK    2  A    between atoms: C_5  and  S_29 
REMARK    3  A    between atoms: C_6  and  C_8 
REMARK    4  A    between atoms: C_8  and  N_9 
REMARK    5  A    between atoms: N_9  and  C_10 
REMARK    6  A    between atoms: C_10  and  C_11 
REMARK    7  A    between atoms: C_11  and  C_12 
REMARK    8  A    between atoms: N_15  and  C_18 
REMARK    9  A    between atoms: S_29  and  C_36 
REMARK   10  A    between atoms: C_30  and  C_36 
ROOT
HETATM    1  C           1     172.676 189.433 282.453  0.00  0.00    -0.010 A 
HETATM    2  C           1     173.539 189.186 283.510  0.00  0.00     0.101 A 
HETATM    3  N           1     174.461 188.198 283.511  0.00  0.00    -0.359 N 
ATOM      4  HN          1     175.081 188.045 284.307  1.00  0.00     0.166 HD
HETATM    5  C           1     174.522 187.424 282.406  0.00  0.00     0.077 A 
HETATM    6  C           1     173.703 187.594 281.300  0.00  0.00     0.004 A 
HETATM    7  C           1     172.763 188.620 281.329  0.00  0.00     0.025 A 
ENDROOT
BRANCH   6   8
HETATM    8  C           1     173.826 186.697 280.108  0.00  0.00     0.311 C 
BRANCH   8   9
HETATM    9  N           1     172.610 185.949 279.941  0.00  0.00     0.087 N 
HETATM   10  H           1     172.656 185.097 280.500  0.00  0.00     0.316 HD
BRANCH   9  11
HETATM   11  C           1     172.496 185.605 278.551  0.00  0.00     0.270 C 
BRANCH  11  12
HETATM   12  C           1     173.639 186.246 277.773  0.00  0.00     0.034 C 
BRANCH  12  13
HETATM   13  C           1     173.686 185.662 276.367  0.00  0.00    -0.010 C 
HETATM   14  C           1     173.054 186.650 275.392  0.00  0.00     0.035 C 
HETATM   15  C           1     173.250 186.203 273.945  0.00  0.00     0.273 C 
HETATM   16  N           1     174.664 185.991 273.636  0.00  0.00     0.093 N 
HETATM   17  C           1     175.260 184.987 274.518  0.00  0.00     0.273 C 
HETATM   18  C           1     175.139 185.389 275.987  0.00  0.00     0.035 C 
BRANCH  16  19
HETATM   19  C           1     174.705 185.475 272.294  0.00  0.00     0.223 C 
HETATM   20  C           1     176.122 185.085 271.903  0.00  0.00     0.036 C 
HETATM   21  C           1     175.969 183.952 270.890  0.00  0.00     0.002 C 
HETATM   22  C           1     174.499 183.540 270.925  0.00  0.00     0.002 C 
HETATM   23  C           1     173.939 184.168 272.191  0.00  0.00     0.036 C 
ENDBRANCH  16  19
ENDBRANCH  12  13
ENDBRANCH  11  12
ENDBRANCH   9  11
ENDBRANCH   8   9
ENDBRANCH   6   8
BRANCH   5  24
HETATM   24  S           1     175.746 186.086 282.365  0.00  0.00    -0.107 SA
BRANCH  24  25
HETATM   25  C           1     174.518 184.783 282.666  0.00  0.00     0.119 C 
BRANCH  25  26
HETATM   26  C           1     174.048 184.857 284.086  0.00  0.00    -0.049 A 
HETATM   27  C           1     174.948 184.642 285.130  0.00  0.00     0.008 A 
HETATM   28  C           1     174.511 184.711 286.453  0.00  0.00     0.001 A 
HETATM   29  C           1     173.172 184.994 286.731  0.00  0.00     0.000 A 
HETATM   30  C           1     172.273 185.208 285.687  0.00  0.00     0.001 A 
HETATM   31  C           1     172.711 185.139 284.364  0.00  0.00     0.008 A 
ENDBRANCH  25  26
ENDBRANCH  24  25
ENDBRANCH   5  24
BRANCH   1  32
HETATM   32  C           1     171.785 190.428 282.514  0.00  0.00    -0.025 A 
HETATM   33  C           1     170.598 190.258 283.226  0.00  0.00     0.012 A 
HETATM   34  C           1     169.668 191.296 283.289  0.00  0.00     0.001 A 
HETATM   35  C           1     169.925 192.503 282.641  0.00  0.00     0.000 A 
HETATM   36  C           1     171.113 192.673 281.927  0.00  0.00     0.001 A 
HETATM   37  C           1     172.042 191.636 281.865  0.00  0.00     0.012 A 
ENDBRANCH   1  32
TORSDOF 10
ENDMDL
MODEL 4
REMARK VINA RESULT:      -8.6      3.597     10.712
REMARK  10 active torsions:
REMARK  status: ('A' for Active; 'I' for Inactive)
REMARK    1  A    between atoms: C_1  and  C_19 
REMARK    2  A    between atoms: C_5  and  S_29 
REMARK    3  A    between atoms: C_6  and  C_8 
REMARK    4  A    between atoms: C_8  and  N_9 
REMARK    5  A    between atoms: N_9  and  C_10 
REMARK    6  A    between atoms: C_10  and  C_11 
REMARK    7  A    between atoms: C_11  and  C_12 
REMARK    8  A    between atoms: N_15  and  C_18 
REMARK    9  A    between atoms: S_29  and  C_36 
REMARK   10  A    between atoms: C_30  and  C_36 
ROOT
HETATM    1  C           1     174.687 186.127 276.497  0.00  0.00    -0.010 A 
HETATM    2  C           1     175.396 186.818 277.468  0.00  0.00     0.101 A 
HETATM    3  N           1     174.926 187.058 278.712  0.00  0.00    -0.359 N 
ATOM      4  HN          1     175.476 187.569 279.402  1.00  0.00     0.166 HD
HETATM    5  C           1     173.692 186.586 278.995  0.00  0.00     0.077 A 
HETATM    6  C           1     172.908 185.885 278.092  0.00  0.00     0.004 A 
HETATM    7  C           1     173.420 185.653 276.819  0.00  0.00     0.025 A 
ENDROOT
BRANCH   6   8
HETATM    8  C           1     171.549 185.391 278.476  0.00  0.00     0.311 C 
BRANCH   8   9
HETATM    9  N           1     170.601 185.748 277.455  0.00  0.00     0.087 N 
HETATM   10  H           1     171.051 185.696 276.540  0.00  0.00     0.316 HD
BRANCH   9  11
HETATM   11  C           1     170.178 187.099 277.705  0.00  0.00     0.270 C 
BRANCH  11  12
HETATM   12  C           1     169.874 187.789 276.381  0.00  0.00     0.034 C 
BRANCH  12  13
HETATM   13  C           1     171.028 187.562 275.414  0.00  0.00    -0.010 C 
HETATM   14  C           1     170.470 187.278 274.023  0.00  0.00     0.035 C 
HETATM   15  C           1     171.582 187.236 272.977  0.00  0.00     0.273 C 
HETATM   16  N           1     172.372 188.467 272.986  0.00  0.00     0.093 N 
HETATM   17  C           1     172.976 188.707 274.297  0.00  0.00     0.273 C 
HETATM   18  C           1     171.915 188.804 275.392  0.00  0.00     0.035 C 
BRANCH  16  19
HETATM   19  C           1     173.439 188.261 272.044  0.00  0.00     0.223 C 
HETATM   20  C           1     173.192 189.041 270.761  0.00  0.00     0.036 C 
HETATM   21  C           1     174.578 189.360 270.204  0.00  0.00     0.002 C 
HETATM   22  C           1     175.576 188.998 271.301  0.00  0.00     0.002 C 
HETATM   23  C           1     174.743 188.842 272.563  0.00  0.00     0.036 C 
ENDBRANCH  16  19
ENDBRANCH  12  13
ENDBRANCH  11  12
ENDBRANCH   9  11
ENDBRANCH   8   9
ENDBRANCH   6   8
BRANCH   5  24
HETATM   24  S           1     173.022 186.887 280.654  0.00  0.00    -0.107 SA
BRANCH  24  25
HETATM   25  C           1     174.524 186.320 281.501  0.00  0.00     0.119 C 
BRANCH  25  26
HETATM   26  C           1     174.178 185.876 282.889  0.00  0.00    -0.049 A 
HETATM   27  C           1     175.173 185.383 283.733  0.00  0.00     0.008 A 
HETATM   28  C           1     174.851 184.970 285.026  0.00  0.00     0.001 A 
HETATM   29  C           1     173.531 185.050 285.474  0.00  0.00     0.000 A 
HETATM   30  C           1     172.536 185.542 284.631  0.00  0.00     0.001 A 
HETATM   31  C           1     172.859 185.955 283.337  0.00  0.00     0.008 A 
ENDBRANCH  25  26
ENDBRANCH  24  25
ENDBRANCH   5  24
BRANCH   1  32
HETATM   32  C           1     175.208 185.922 275.283  0.00  0.00    -0.025 A 
HETATM   33  C           1     176.499 186.364 274.994  0.00  0.00     0.012 A 
HETATM   34  C           1     177.042 186.149 273.727  0.00  0.00     0.001 A 
HETATM   35  C           1     176.296 185.492 272.750  0.00  0.00     0.000 A 
HETATM   36  C           1     175.004 185.049 273.039  0.00  0.00     0.001 A 
HETATM   37  C           1     174.462 185.263 274.306  0.00  0.00     0.012 A 
ENDBRANCH   1  32
TORSDOF 10
ENDMDL
MODEL 5
REMARK VINA RESULT:      -8.4      8.633     12.280
REMARK  10 active torsions:
REMARK  status: ('A' for Active; 'I' for Inactive)
REMARK    1  A    between atoms: C_1  and  C_19 
REMARK    2  A    between atoms: C_5  and  S_29 
REMARK    3  A    between atoms: C_6  and  C_8 
REMARK    4  A    between atoms: C_8  and  N_9 
REMARK    5  A    between atoms: N_9  and  C_10 
REMARK    6  A    between atoms: C_10  and  C_11 
REMARK    7  A    between atoms: C_11  and  C_12 
REMARK    8  A    between atoms: N_15  and  C_18 
REMARK    9  A    between atoms: S_29  and  C_36 
REMARK   10  A    between atoms: C_30  and  C_36 
ROOT
HETATM    1  C           1     175.494 185.487 272.440  0.00  0.00    -0.010 A 
HETATM    2  C           1     176.229 184.938 271.401  0.00  0.00     0.101 A 
HETATM    3  N           1     175.770 184.825 270.135  0.00  0.00    -0.359 N 
ATOM      4  HN          1     176.339 184.416 269.394  1.00  0.00     0.166 HD
HETATM    5  C           1     174.520 185.280 269.900  0.00  0.00     0.077 A 
HETATM    6  C           1     173.709 185.845 270.874  0.00  0.00     0.004 A 
HETATM    7  C           1     174.210 185.948 272.167  0.00  0.00     0.025 A 
ENDROOT
BRANCH   6   8
HETATM    8  C           1     172.333 186.329 270.541  0.00  0.00     0.311 C 
BRANCH   8   9
HETATM    9  N           1     171.498 186.244 271.708  0.00  0.00     0.087 N 
HETATM   10  H           1     170.978 185.366 271.691  0.00  0.00     0.316 HD
BRANCH   9  11
HETATM   11  C           1     170.578 187.347 271.669  0.00  0.00     0.270 C 
BRANCH  11  12
HETATM   12  C           1     171.219 188.517 270.931  0.00  0.00     0.034 C 
BRANCH  12  13
HETATM   13  C           1     171.735 189.533 271.942  0.00  0.00    -0.010 C 
HETATM   14  C           1     173.202 189.829 271.653  0.00  0.00     0.035 C 
HETATM   15  C           1     173.715 190.984 272.512  0.00  0.00     0.273 C 
HETATM   16  N           1     172.893 192.182 272.344  0.00  0.00     0.093 N 
HETATM   17  C           1     171.495 191.926 272.694  0.00  0.00     0.273 C 
HETATM   18  C           1     170.901 190.807 271.841  0.00  0.00     0.035 C 
BRANCH  16  19
HETATM   19  C           1     173.407 193.150 273.274  0.00  0.00     0.223 C 
HETATM   20  C           1     173.651 192.521 274.637  0.00  0.00     0.036 C 
HETATM   21  C           1     174.798 193.318 275.256  0.00  0.00     0.002 C 
HETATM   22  C           1     175.359 194.198 274.143  0.00  0.00     0.002 C 
HETATM   23  C           1     174.787 193.627 272.855  0.00  0.00     0.036 C 
ENDBRANCH  16  19
ENDBRANCH  12  13
ENDBRANCH  11  12
ENDBRANCH   9  11
ENDBRANCH   8   9
ENDBRANCH   6   8
BRANCH   5  24
HETATM   24  S           1     173.864 185.148 268.214  0.00  0.00    -0.107 SA
BRANCH  24  25
HETATM   25  C           1     174.918 186.474 267.564  0.00  0.00     0.119 C 
BRANCH  25  26
HETATM   26  C           1     174.156 187.763 267.562  0.00  0.00    -0.049 A 
HETATM   27  C           1     174.732 188.915 268.096  0.00  0.00     0.008 A 
HETATM   28  C           1     174.022 190.116 268.096  0.00  0.00     0.001 A 
HETATM   29  C           1     172.734 190.164 267.560  0.00  0.00     0.000 A 
HETATM   30  C           1     172.158 189.012 267.026  0.00  0.00     0.001 A 
HETATM   31  C           1     172.868 187.811 267.027  0.00  0.00     0.008 A 
ENDBRANCH  25  26
ENDBRANCH  24  25
ENDBRANCH   5  24
BRANCH   1  32
HETATM   32  C           1     176.005 185.571 273.673  0.00  0.00    -0.025 A 
HETATM   33  C           1     175.300 185.051 274.758  0.00  0.00     0.012 A 
HETATM   34  C           1     175.834 185.138 276.043  0.00  0.00     0.001 A 
HETATM   35  C           1     177.073 185.744 276.244  0.00  0.00     0.000 A 
HETATM   36  C           1     177.780 186.264 275.159  0.00  0.00     0.001 A 
HETATM   37  C           1     177.246 186.177 273.874  0.00  0.00     0.012 A 
ENDBRANCH   1  32
TORSDOF 10
ENDMDL
MODEL 6
REMARK VINA RESULT:      -8.4      1.208      5.960
REMARK  10 active torsions:
REMARK  status: ('A' for Active; 'I' for Inactive)
REMARK    1  A    between atoms: C_1  and  C_19 
REMARK    2  A    between atoms: C_5  and  S_29 
REMARK    3  A    between atoms: C_6  and  C_8 
REMARK    4  A    between atoms: C_8  and  N_9 
REMARK    5  A    between atoms: N_9  and  C_10 
REMARK    6  A    between atoms: C_10  and  C_11 
REMARK    7  A    between atoms: C_11  and  C_12 
REMARK    8  A    between atoms: N_15  and  C_18 
REMARK    9  A    between atoms: S_29  and  C_36 
REMARK   10  A    between atoms: C_30  and  C_36 
ROOT
HETATM    1  C           1     174.581 186.749 276.677  0.00  0.00    -0.010 A 
HETATM    2  C           1     173.340 187.111 276.174  0.00  0.00     0.101 A 
HETATM    3  N           1     172.237 187.267 276.939  0.00  0.00    -0.359 N 
ATOM      4  HN          1     171.339 187.535 276.535  1.00  0.00     0.166 HD
HETATM    5  C           1     172.383 187.052 278.264  0.00  0.00     0.077 A 
HETATM    6  C           1     173.581 186.688 278.859  0.00  0.00     0.004 A 
HETATM    7  C           1     174.699 186.535 278.046  0.00  0.00     0.025 A 
ENDROOT
BRANCH   6   8
HETATM    8  C           1     173.669 186.466 280.337  0.00  0.00     0.311 C 
BRANCH   8   9
HETATM    9  N           1     174.723 187.276 280.883  0.00  0.00     0.087 N 
HETATM   10  H           1     175.603 187.048 280.420  0.00  0.00     0.316 HD
BRANCH   9  11
HETATM   11  C           1     174.826 186.974 282.284  0.00  0.00     0.270 C 
BRANCH  11  12
HETATM   12  C           1     174.600 185.483 282.500  0.00  0.00     0.034 C 
BRANCH  12  13
HETATM   13  C           1     174.038 185.251 283.896  0.00  0.00    -0.010 C 
HETATM   14  C           1     175.132 185.509 284.927  0.00  0.00     0.035 C 
HETATM   15  C           1     174.573 185.481 286.348  0.00  0.00     0.273 C 
HETATM   16  N           1     173.467 186.427 286.507  0.00  0.00     0.093 N 
HETATM   17  C           1     172.378 186.139 285.572  0.00  0.00     0.273 C 
HETATM   18  C           1     172.857 186.191 284.123  0.00  0.00     0.035 C 
BRANCH  16  19
HETATM   19  C           1     172.965 186.230 287.840  0.00  0.00     0.223 C 
HETATM   20  C           1     173.978 185.491 288.701  0.00  0.00     0.036 C 
HETATM   21  C           1     173.724 185.968 290.130  0.00  0.00     0.002 C 
HETATM   22  C           1     172.769 187.154 290.024  0.00  0.00     0.002 C 
HETATM   23  C           1     172.794 187.557 288.558  0.00  0.00     0.036 C 
ENDBRANCH  16  19
ENDBRANCH  12  13
ENDBRANCH  11  12
ENDBRANCH   9  11
ENDBRANCH   8   9
ENDBRANCH   6   8
BRANCH   5  24
HETATM   24  S           1     170.927 187.251 279.328  0.00  0.00    -0.107 SA
BRANCH  24  25
HETATM   25  C           1     170.706 189.004 278.914  0.00  0.00     0.119 C 
BRANCH  25  26
HETATM   26  C           1     171.047 189.846 280.104  0.00  0.00    -0.049 A 
HETATM   27  C           1     170.727 191.203 280.113  0.00  0.00     0.008 A 
HETATM   28  C           1     171.044 191.988 281.222  0.00  0.00     0.001 A 
HETATM   29  C           1     171.684 191.414 282.322  0.00  0.00     0.000 A 
HETATM   30  C           1     172.004 190.057 282.313  0.00  0.00     0.001 A 
HETATM   31  C           1     171.686 189.272 281.203  0.00  0.00     0.008 A 
ENDBRANCH  25  26
ENDBRANCH  24  25
ENDBRANCH   5  24
BRANCH   1  32
HETATM   32  C           1     175.635 186.610 275.867  0.00  0.00    -0.025 A 
HETATM   33  C           1     176.875 186.248 276.392  0.00  0.00     0.012 A 
HETATM   34  C           1     177.975 186.103 275.546  0.00  0.00     0.001 A 
HETATM   35  C           1     177.835 186.319 274.176  0.00  0.00     0.000 A 
HETATM   36  C           1     176.594 186.682 273.650  0.00  0.00     0.001 A 
HETATM   37  C           1     175.495 186.826 274.496  0.00  0.00     0.012 A 
ENDBRANCH   1  32
TORSDOF 10
ENDMDL
MODEL 7
REMARK VINA RESULT:      -8.4      8.860     12.985
REMARK  10 active torsions:
REMARK  status: ('A' for Active; 'I' for Inactive)
REMARK    1  A    between atoms: C_1  and  C_19 
REMARK    2  A    between atoms: C_5  and  S_29 
REMARK    3  A    between atoms: C_6  and  C_8 
REMARK    4  A    between atoms: C_8  and  N_9 
REMARK    5  A    between atoms: N_9  and  C_10 
REMARK    6  A    between atoms: C_10  and  C_11 
REMARK    7  A    between atoms: C_11  and  C_12 
REMARK    8  A    between atoms: N_15  and  C_18 
REMARK    9  A    between atoms: S_29  and  C_36 
REMARK   10  A    between atoms: C_30  and  C_36 
ROOT
HETATM    1  C           1     174.729 185.603 273.451  0.00  0.00    -0.010 A 
HETATM    2  C           1     173.654 186.462 273.617  0.00  0.00     0.101 A 
HETATM    3  N           1     172.570 186.472 272.811  0.00  0.00    -0.359 N 
ATOM      4  HN          1     171.795 187.119 272.963  1.00  0.00     0.166 HD
HETATM    5  C           1     172.562 185.584 271.793  0.00  0.00     0.077 A 
HETATM    6  C           1     173.589 184.685 271.546  0.00  0.00     0.004 A 
HETATM    7  C           1     174.692 184.699 272.394  0.00  0.00     0.025 A 
ENDROOT
BRANCH   6   8
HETATM    8  C           1     173.513 183.728 270.399  0.00  0.00     0.311 C 
BRANCH   8   9
HETATM    9  N           1     174.660 183.903 269.550  0.00  0.00     0.087 N 
HETATM   10  H           1     175.454 184.213 270.110  0.00  0.00     0.316 HD
BRANCH   9  11
HETATM   11  C           1     174.334 184.911 268.578  0.00  0.00     0.270 C 
BRANCH  11  12
HETATM   12  C           1     175.394 186.005 268.607  0.00  0.00     0.034 C 
BRANCH  12  13
HETATM   13  C           1     174.746 187.329 268.992  0.00  0.00    -0.010 C 
HETATM   14  C           1     175.213 187.729 270.388  0.00  0.00     0.035 C 
HETATM   15  C           1     174.749 189.140 270.744  0.00  0.00     0.273 C 
HETATM   16  N           1     175.184 190.116 269.743  0.00  0.00     0.093 N 
HETATM   17  C           1     174.676 189.781 268.412  0.00  0.00     0.273 C 
HETATM   18  C           1     175.137 188.393 267.970  0.00  0.00     0.035 C 
BRANCH  16  19
HETATM   19  C           1     174.600 191.371 270.132  0.00  0.00     0.223 C 
HETATM   20  C           1     173.406 191.156 271.050  0.00  0.00     0.036 C 
HETATM   21  C           1     173.346 192.396 271.940  0.00  0.00     0.002 C 
HETATM   22  C           1     174.647 193.159 271.702  0.00  0.00     0.002 C 
HETATM   23  C           1     175.561 192.175 270.989  0.00  0.00     0.036 C 
ENDBRANCH  16  19
ENDBRANCH  12  13
ENDBRANCH  11  12
ENDBRANCH   9  11
ENDBRANCH   8   9
ENDBRANCH   6   8
BRANCH   5  24
HETATM   24  S           1     171.125 185.564 270.685  0.00  0.00    -0.107 SA
BRANCH  24  25
HETATM   25  C           1     170.980 187.372 270.635  0.00  0.00     0.119 C 
BRANCH  25  26
HETATM   26  C           1     171.148 187.849 269.226  0.00  0.00    -0.049 A 
HETATM   27  C           1     171.103 189.213 268.940  0.00  0.00     0.008 A 
HETATM   28  C           1     171.259 189.657 267.627  0.00  0.00     0.001 A 
HETATM   29  C           1     171.461 188.735 266.599  0.00  0.00     0.000 A 
HETATM   30  C           1     171.506 187.371 266.884  0.00  0.00     0.001 A 
HETATM   31  C           1     171.349 186.927 268.198  0.00  0.00     0.008 A 
ENDBRANCH  25  26
ENDBRANCH  24  25
ENDBRANCH   5  24
BRANCH   1  32
HETATM   32  C           1     175.774 185.642 274.284  0.00  0.00    -0.025 A 
HETATM   33  C           1     176.934 186.323 273.916  0.00  0.00     0.012 A 
HETATM   34  C           1     178.024 186.364 274.786  0.00  0.00     0.001 A 
HETATM   35  C           1     177.954 185.725 276.023  0.00  0.00     0.000 A 
HETATM   36  C           1     176.793 185.043 276.391  0.00  0.00     0.001 A 
HETATM   37  C           1     175.703 185.003 275.522  0.00  0.00     0.012 A 
ENDBRANCH   1  32
TORSDOF 10
ENDMDL
MODEL 8
REMARK VINA RESULT:      -8.3      5.269      9.836
REMARK  10 active torsions:
REMARK  status: ('A' for Active; 'I' for Inactive)
REMARK    1  A    between atoms: C_1  and  C_19 
REMARK    2  A    between atoms: C_5  and  S_29 
REMARK    3  A    between atoms: C_6  and  C_8 
REMARK    4  A    between atoms: C_8  and  N_9 
REMARK    5  A    between atoms: N_9  and  C_10 
REMARK    6  A    between atoms: C_10  and  C_11 
REMARK    7  A    between atoms: C_11  and  C_12 
REMARK    8  A    between atoms: N_15  and  C_18 
REMARK    9  A    between atoms: S_29  and  C_36 
REMARK   10  A    between atoms: C_30  and  C_36 
ROOT
HETATM    1  C           1     175.262 185.466 272.658  0.00  0.00    -0.010 A 
HETATM    2  C           1     175.865 185.311 271.419  0.00  0.00     0.101 A 
HETATM    3  N           1     175.182 185.227 270.257  0.00  0.00    -0.359 N 
ATOM      4  HN          1     175.660 185.114 269.362  1.00  0.00     0.166 HD
HETATM    5  C           1     173.836 185.299 270.338  0.00  0.00     0.077 A 
HETATM    6  C           1     173.142 185.453 271.529  0.00  0.00     0.004 A 
HETATM    7  C           1     173.874 185.537 272.709  0.00  0.00     0.025 A 
ENDROOT
BRANCH   6   8
HETATM    8  C           1     171.647 185.525 271.543  0.00  0.00     0.311 C 
BRANCH   8   9
HETATM    9  N           1     171.235 186.859 271.887  0.00  0.00     0.087 N 
HETATM   10  H           1     172.055 187.423 272.108  0.00  0.00     0.316 HD
BRANCH   9  11
HETATM   11  C           1     170.388 186.769 273.045  0.00  0.00     0.270 C 
BRANCH  11  12
HETATM   12  C           1     170.878 187.744 274.109  0.00  0.00     0.034 C 
BRANCH  12  13
HETATM   13  C           1     171.539 186.970 275.242  0.00  0.00    -0.010 C 
HETATM   14  C           1     172.858 187.642 275.607  0.00  0.00     0.035 C 
HETATM   15  C           1     173.466 187.022 276.864  0.00  0.00     0.273 C 
HETATM   16  N           1     172.529 187.058 277.986  0.00  0.00     0.093 N 
HETATM   17  C           1     171.289 186.349 277.671  0.00  0.00     0.273 C 
HETATM   18  C           1     170.600 186.943 276.444  0.00  0.00     0.035 C 
BRANCH  16  19
HETATM   19  C           1     173.173 186.358 279.064  0.00  0.00     0.223 C 
HETATM   20  C           1     174.420 187.096 279.527  0.00  0.00     0.036 C 
HETATM   21  C           1     174.575 186.750 281.007  0.00  0.00     0.002 C 
HETATM   22  C           1     173.282 186.050 281.421  0.00  0.00     0.002 C 
HETATM   23  C           1     172.295 186.340 280.303  0.00  0.00     0.036 C 
ENDBRANCH  16  19
ENDBRANCH  12  13
ENDBRANCH  11  12
ENDBRANCH   9  11
ENDBRANCH   8   9
ENDBRANCH   6   8
BRANCH   5  24
HETATM   24  S           1     172.879 185.189 268.800  0.00  0.00    -0.107 SA
BRANCH  24  25
HETATM   25  C           1     174.132 186.050 267.810  0.00  0.00     0.119 C 
BRANCH  25  26
HETATM   26  C           1     173.773 187.500 267.699  0.00  0.00    -0.049 A 
HETATM   27  C           1     174.650 188.474 268.175  0.00  0.00     0.008 A 
HETATM   28  C           1     174.316 189.824 268.072  0.00  0.00     0.001 A 
HETATM   29  C           1     173.102 190.200 267.493  0.00  0.00     0.000 A 
HETATM   30  C           1     172.226 189.226 267.017  0.00  0.00     0.001 A 
HETATM   31  C           1     172.561 187.875 267.121  0.00  0.00     0.008 A 
ENDBRANCH  25  26
ENDBRANCH  24  25
ENDBRANCH   5  24
BRANCH   1  32
HETATM   32  C           1     175.995 185.543 273.773  0.00  0.00    -0.025 A 
HETATM   33  C           1     175.578 184.883 274.929  0.00  0.00     0.012 A 
HETATM   34  C           1     176.342 184.965 276.092  0.00  0.00     0.001 A 
HETATM   35  C           1     177.524 185.704 276.100  0.00  0.00     0.000 A 
HETATM   36  C           1     177.942 186.364 274.944  0.00  0.00     0.001 A 
HETATM   37  C           1     177.177 186.283 273.781  0.00  0.00     0.012 A 
ENDBRANCH   1  32
TORSDOF 10
ENDMDL
MODEL 9
REMARK VINA RESULT:      -8.2      7.636     14.436
REMARK  10 active torsions:
REMARK  status: ('A' for Active; 'I' for Inactive)
REMARK    1  A    between atoms: C_1  and  C_19 
REMARK    2  A    between atoms: C_5  and  S_29 
REMARK    3  A    between atoms: C_6  and  C_8 
REMARK    4  A    between atoms: C_8  and  N_9 
REMARK    5  A    between atoms: N_9  and  C_10 
REMARK    6  A    between atoms: C_10  and  C_11 
REMARK    7  A    between atoms: C_11  and  C_12 
REMARK    8  A    between atoms: N_15  and  C_18 
REMARK    9  A    between atoms: S_29  and  C_36 
REMARK   10  A    between atoms: C_30  and  C_36 
ROOT
HETATM    1  C           1     174.675 187.922 270.526  0.00  0.00    -0.010 A 
HETATM    2  C           1     175.376 188.808 271.329  0.00  0.00     0.101 A 
HETATM    3  N           1     176.052 188.441 272.440  0.00  0.00    -0.359 N 
ATOM      4  HN          1     176.558 189.120 273.008  1.00  0.00     0.166 HD
HETATM    5  C           1     176.024 187.129 272.761  0.00  0.00     0.077 A 
HETATM    6  C           1     175.351 186.168 272.021  0.00  0.00     0.004 A 
HETATM    7  C           1     174.665 186.577 270.882  0.00  0.00     0.025 A 
ENDROOT
BRANCH   6   8
HETATM    8  C           1     175.364 184.730 272.437  0.00  0.00     0.311 C 
BRANCH   8   9
HETATM    9  N           1     174.033 184.193 272.348  0.00  0.00     0.087 N 
HETATM   10  H           1     173.794 183.729 273.225  0.00  0.00     0.316 HD
BRANCH   9  11
HETATM   11  C           1     174.020 183.233 271.279  0.00  0.00     0.270 C 
BRANCH  11  12
HETATM   12  C           1     175.451 182.839 270.932  0.00  0.00     0.034 C 
BRANCH  12  13
HETATM   13  C           1     175.673 183.001 269.434  0.00  0.00    -0.010 C 
HETATM   14  C           1     174.384 183.498 268.787  0.00  0.00     0.035 C 
HETATM   15  C           1     174.607 183.863 267.320  0.00  0.00     0.273 C 
HETATM   16  N           1     175.683 184.842 267.169  0.00  0.00     0.093 N 
HETATM   17  C           1     176.943 184.342 267.720  0.00  0.00     0.273 C 
HETATM   18  C           1     176.807 183.994 269.201  0.00  0.00     0.035 C 
BRANCH  16  19
HETATM   19  C           1     175.863 185.019 265.753  0.00  0.00     0.223 C 
HETATM   20  C           1     176.710 183.900 265.167  0.00  0.00     0.036 C 
HETATM   21  C           1     176.244 183.749 263.720  0.00  0.00     0.002 C 
HETATM   22  C           1     174.974 184.586 263.589  0.00  0.00     0.002 C 
HETATM   23  C           1     174.542 184.883 265.016  0.00  0.00     0.036 C 
ENDBRANCH  16  19
ENDBRANCH  12  13
ENDBRANCH  11  12
ENDBRANCH   9  11
ENDBRANCH   8   9
ENDBRANCH   6   8
BRANCH   5  24
HETATM   24  S           1     176.918 186.592 274.246  0.00  0.00    -0.107 SA
BRANCH  24  25
HETATM   25  C           1     176.083 187.781 275.333  0.00  0.00     0.119 C 
BRANCH  25  26
HETATM   26  C           1     174.791 187.197 275.814  0.00  0.00    -0.049 A 
HETATM   27  C           1     173.579 187.701 275.341  0.00  0.00     0.008 A 
HETATM   28  C           1     172.375 187.157 275.789  0.00  0.00     0.001 A 
HETATM   29  C           1     172.384 186.109 276.711  0.00  0.00     0.000 A 
HETATM   30  C           1     173.595 185.606 277.184  0.00  0.00     0.001 A 
HETATM   31  C           1     174.799 186.150 276.736  0.00  0.00     0.008 A 
ENDBRANCH  25  26
ENDBRANCH  24  25
ENDBRANCH   5  24
BRANCH   1  32
HETATM   32  C           1     174.025 188.348 269.438  0.00  0.00    -0.025 A 
HETATM   33  C           1     173.807 187.478 268.370  0.00  0.00     0.012 A 
HETATM   34  C           1     173.130 187.923 267.236  0.00  0.00     0.001 A 
HETATM   35  C           1     172.669 189.237 267.169  0.00  0.00     0.000 A 
HETATM   36  C           1     172.886 190.108 268.238  0.00  0.00     0.001 A 
HETATM   37  C           1     173.564 189.663 269.372  0.00  0.00     0.012 A 
ENDBRANCH   1  32
TORSDOF 10
ENDMDL
