REMARK  12 active torsions:
REMARK  status: ('A' for Active; 'I' for Inactive)
REMARK    1  A    between atoms: O1_2  and  C2_3 
REMARK    2  A    between atoms: C3_4  and  O2_5 
REMARK    3  A    between atoms: C5_7  and  O3_8 
REMARK    4  A    between atoms: C8_12  and  S1_13 
REMARK    5  A    between atoms: S1_13  and  C9_14 
REMARK    6  A    between atoms: C9_14  and  C10_15 
REMARK    7  A    between atoms: C16_21  and  C17_22 
REMARK    8  A    between atoms: C17_22  and  N2_23 
REMARK    9  A    between atoms: N2_23  and  C18_24 
REMARK   10  A    between atoms: C18_24  and  C19_25 
REMARK   11  A    between atoms: C19_25  and  C20_26 
REMARK   12  A    between atoms: N3_29  and  C23_30 
ROOT
HETATM    1  C2  UNL     1      -0.090  -2.776   1.970  1.00  0.00     0.105 A 
HETATM    2  C3  UNL     1       1.289  -2.517   1.740  1.00  0.00     0.137 A 
HETATM    3  C5  UNL     1       1.730  -2.203   0.424  1.00  0.00     0.134 A 
HETATM    4  C7  UNL     1       0.810  -2.197  -0.633  1.00  0.00     0.104 A 
HETATM    5  N1  UNL     1       1.233  -1.931  -1.899  1.00  0.00    -0.238 NA
HETATM    6  C8  UNL     1       0.381  -1.862  -2.956  1.00  0.00     0.102 A 
HETATM    7  C16 UNL     1      -1.000  -2.068  -2.758  1.00  0.00     0.006 A 
HETATM    8  C30 UNL     1      -1.448  -2.403  -1.471  1.00  0.00     0.025 A 
HETATM    9  C31 UNL     1      -0.549  -2.462  -0.401  1.00  0.00    -0.001 A 
HETATM   10  C32 UNL     1      -0.991  -2.751   0.890  1.00  0.00     0.053 A 
ENDROOT
BRANCH   7  11
HETATM   11  C17 UNL     1      -2.006  -1.852  -3.859  1.00  0.00     0.311 C 
BRANCH  11  12
HETATM   12  N2  UNL     1      -2.313  -0.419  -3.967  1.00  0.00     0.087 N 
HETATM   13  H19 UNL     1      -2.549  -0.209  -4.963  1.00  0.00     0.316 HD
BRANCH  12  14
HETATM   14  C18 UNL     1      -3.462  -0.025  -3.132  1.00  0.00     0.270 C 
BRANCH  14  15
HETATM   15  C19 UNL     1      -3.276   1.403  -2.598  1.00  0.00     0.034 C 
BRANCH  15  16
HETATM   16  C20 UNL     1      -2.133   1.545  -1.564  1.00  0.00    -0.010 C 
HETATM   17  C21 UNL     1      -2.472   0.861  -0.228  1.00  0.00     0.035 C 
HETATM   18  C22 UNL     1      -1.321   1.052   0.760  1.00  0.00     0.273 C 
HETATM   19  N3  UNL     1      -1.124   2.494   1.030  1.00  0.00     0.093 N 
HETATM   20  C28 UNL     1      -0.776   3.225  -0.211  1.00  0.00     0.273 C 
HETATM   21  C29 UNL     1      -1.853   3.037  -1.292  1.00  0.00     0.035 C 
BRANCH  19  22
HETATM   22  C23 UNL     1      -0.156   2.793   2.125  1.00  0.00     0.223 C 
HETATM   23  C24 UNL     1       1.208   2.100   1.983  1.00  0.00     0.036 C 
HETATM   24  C25 UNL     1       1.155   0.888   2.893  1.00  0.00     0.002 C 
HETATM   25  C26 UNL     1       0.185   1.236   4.014  1.00  0.00     0.002 C 
HETATM   26  C27 UNL     1      -0.700   2.372   3.499  1.00  0.00     0.036 C 
ENDBRANCH  19  22
ENDBRANCH  15  16
ENDBRANCH  14  15
ENDBRANCH  12  14
ENDBRANCH  11  12
ENDBRANCH   7  11
BRANCH   6  27
HETATM   27  S1  UNL     1       1.080  -1.611  -4.597  1.00  0.00    -0.105 SA
BRANCH  27  28
HETATM   28  C9  UNL     1       1.216   0.210  -4.484  1.00  0.00     0.119 C 
BRANCH  28  29
HETATM   29  C10 UNL     1       2.230   0.654  -3.459  1.00  0.00    -0.049 A 
HETATM   30  C11 UNL     1       1.934   1.742  -2.616  1.00  0.00     0.008 A 
HETATM   31  C12 UNL     1       2.867   2.182  -1.673  1.00  0.00     0.001 A 
HETATM   32  C13 UNL     1       4.107   1.538  -1.562  1.00  0.00     0.000 A 
HETATM   33  C14 UNL     1       4.420   0.467  -2.406  1.00  0.00     0.001 A 
HETATM   34  C15 UNL     1       3.491   0.033  -3.359  1.00  0.00     0.008 A 
ENDBRANCH  28  29
ENDBRANCH  27  28
ENDBRANCH   6  27
BRANCH   3  35
HETATM   35  O3  UNL     1       3.061  -1.871   0.103  1.00  0.00    -0.351 OA
HETATM   36  C6  UNL     1       4.173  -1.836   0.992  1.00  0.00     0.210 C 
ENDBRANCH   3  35
BRANCH   1  37
HETATM   37  O1  UNL     1      -0.550  -3.017   3.275  1.00  0.00    -0.353 OA
HETATM   38  C1  UNL     1      -1.916  -3.216   3.639  1.00  0.00     0.210 C 
ENDBRANCH   1  37
BRANCH   2  39
HETATM   39  O2  UNL     1       2.234  -2.516   2.785  1.00  0.00    -0.351 OA
HETATM   40  C4  UNL     1       2.058  -3.018   4.104  1.00  0.00     0.210 C 
ENDBRANCH   2  39
TORSDOF 12
