REMARK  9 active torsions:
REMARK  status: ('A' for Active; 'I' for Inactive)
REMARK    1  A    between atoms: C8_8  and  C9_9 
REMARK    2  A    between atoms: C9_9  and  N1_10 
REMARK    3  A    between atoms: N1_10  and  C10_11 
REMARK    4  A    between atoms: C10_11  and  C11_12 
REMARK    5  A    between atoms: C14_15  and  C15_16 
REMARK    6  A    between atoms: C15_16  and  N2_17 
REMARK    7  A    between atoms: C22_24  and  S1_25 
REMARK    8  A    between atoms: S1_25  and  C23_26 
REMARK    9  A    between atoms: C23_26  and  C24_27 
ROOT
HETATM    1  C1  UNL     1      -1.608  -2.847   3.590  1.00  0.00     0.068 A 
HETATM    2  C2  UNL     1      -2.351  -3.913   4.106  1.00  0.00     0.032 A 
HETATM    3  C3  UNL     1      -2.861  -3.843   5.406  1.00  0.00     0.002 A 
HETATM    4  C4  UNL     1      -2.607  -2.718   6.206  1.00  0.00     0.001 A 
HETATM    5  C5  UNL     1      -1.889  -1.638   5.687  1.00  0.00     0.014 A 
HETATM    6  C6  UNL     1      -1.387  -1.694   4.375  1.00  0.00    -0.007 A 
HETATM    7  C7  UNL     1      -0.645  -0.634   3.835  1.00  0.00     0.025 A 
HETATM    8  C8  UNL     1      -0.104  -0.737   2.543  1.00  0.00     0.006 A 
HETATM    9  C22 UNL     1      -0.352  -1.913   1.795  1.00  0.00     0.102 A 
HETATM   10  N3  UNL     1      -1.075  -2.927   2.344  1.00  0.00    -0.241 NA
ENDROOT
BRANCH   8  11
HETATM   11  C9  UNL     1       0.762   0.387   2.023  1.00  0.00     0.311 C 
BRANCH  11  12
HETATM   12  N1  UNL     1      -0.044   1.353   1.265  1.00  0.00     0.091 N 
HETATM   13  H8  UNL     1      -0.751   1.759   1.924  1.00  0.00     0.316 HD
BRANCH  12  14
HETATM   14  C10 UNL     1       0.794   2.461   0.767  1.00  0.00     0.308 C 
BRANCH  14  15
HETATM   15  C11 UNL     1       1.266   2.164  -0.632  1.00  0.00    -0.030 A 
HETATM   16  C12 UNL     1       0.364   2.228  -1.702  1.00  0.00     0.009 A 
HETATM   17  C13 UNL     1       0.781   1.904  -2.996  1.00  0.00     0.009 A 
HETATM   18  C14 UNL     1       2.116   1.540  -3.244  1.00  0.00    -0.030 A 
HETATM   19  C20 UNL     1       3.040   1.562  -2.183  1.00  0.00     0.009 A 
HETATM   20  C21 UNL     1       2.612   1.850  -0.884  1.00  0.00     0.009 A 
BRANCH  18  21
HETATM   21  C15 UNL     1       2.546   1.187  -4.657  1.00  0.00     0.311 C 
BRANCH  21  22
HETATM   22  N2  UNL     1       2.719  -0.271  -4.903  1.00  0.00     0.092 N 
HETATM   23  C16 UNL     1       3.950  -0.835  -4.326  1.00  0.00     0.273 C 
HETATM   24  C17 UNL     1       3.562  -1.748  -3.169  1.00  0.00     0.032 C 
HETATM   25  C18 UNL     1       2.045  -1.757  -3.132  1.00  0.00     0.032 C 
HETATM   26  C19 UNL     1       1.605  -1.106  -4.431  1.00  0.00     0.273 C 
ENDBRANCH  21  22
ENDBRANCH  18  21
ENDBRANCH  14  15
ENDBRANCH  12  14
ENDBRANCH  11  12
ENDBRANCH   8  11
BRANCH   9  27
HETATM   27  S1  UNL     1       0.290  -2.127   0.127  1.00  0.00    -0.105 SA
BRANCH  27  28
HETATM   28  C23 UNL     1      -1.318  -2.472  -0.684  1.00  0.00     0.119 C 
BRANCH  28  29
HETATM   29  C24 UNL     1      -2.350  -1.411  -0.408  1.00  0.00    -0.049 A 
HETATM   30  C25 UNL     1      -3.515  -1.723   0.321  1.00  0.00     0.008 A 
HETATM   31  C26 UNL     1      -4.494  -0.747   0.538  1.00  0.00     0.001 A 
HETATM   32  C27 UNL     1      -4.315   0.545   0.045  1.00  0.00     0.000 A 
HETATM   33  C28 UNL     1      -3.167   0.861  -0.692  1.00  0.00     0.001 A 
HETATM   34  C29 UNL     1      -2.183  -0.115  -0.915  1.00  0.00     0.008 A 
ENDBRANCH  28  29
ENDBRANCH  27  28
ENDBRANCH   9  27
TORSDOF 9
