MODEL 1
REMARK VINA RESULT:      -9.7      0.000      0.000
REMARK  9 active torsions:
REMARK  status: ('A' for Active; 'I' for Inactive)
REMARK    1  A    between atoms: C_4  and  S_29 
REMARK    2  A    between atoms: C_5  and  C_7 
REMARK    3  A    between atoms: C_7  and  N_8 
REMARK    4  A    between atoms: N_8  and  C_9 
REMARK    5  A    between atoms: C_9  and  C_10 
REMARK    6  A    between atoms: C_10  and  C_11 
REMARK    7  A    between atoms: N_14  and  C_17 
REMARK    8  A    between atoms: S_29  and  C_36 
REMARK    9  A    between atoms: C_30  and  C_36 
ROOT
HETATM    1  C           1     171.649 189.303 281.027  0.00  0.00    -0.008 A 
HETATM    2  C           1     170.848 188.944 279.954  0.00  0.00     0.130 A 
HETATM    3  N           1     171.080 187.871 279.168  0.00  0.00    -0.253 NA
HETATM    4  C           1     172.163 187.122 279.471  0.00  0.00     0.101 A 
HETATM    5  C           1     173.023 187.399 280.522  0.00  0.00     0.006 A 
HETATM    6  C           1     172.757 188.512 281.313  0.00  0.00     0.025 A 
HETATM    7  C           1     171.364 190.379 281.766  0.00  0.00    -0.025 A 
HETATM    8  C           1     172.066 191.568 281.567  0.00  0.00     0.013 A 
HETATM    9  C           1     171.769 192.691 282.339  0.00  0.00     0.007 A 
HETATM   10  C           1     170.771 192.625 283.311  0.00  0.00    -0.062 A 
HETATM   11  C           1     170.068 191.437 283.510  0.00  0.00     0.007 A 
HETATM   12  C           1     170.365 190.314 282.738  0.00  0.00     0.013 A 
HETATM   13  C           1     170.451 193.831 284.138  0.00  0.00     0.048 C 
ENDROOT
BRANCH   5  14
HETATM   14  C           1     174.205 186.524 280.799  0.00  0.00     0.311 C 
BRANCH  14  15
HETATM   15  N           1     175.093 187.190 281.713  0.00  0.00     0.087 N 
HETATM   16  H           1     175.836 187.653 281.190  0.00  0.00     0.316 HD
BRANCH  15  17
HETATM   17  C           1     175.664 186.191 282.575  0.00  0.00     0.270 C 
BRANCH  17  18
HETATM   18  C           1     174.735 184.987 282.644  0.00  0.00     0.034 C 
BRANCH  18  19
HETATM   19  C           1     174.173 184.858 284.053  0.00  0.00    -0.010 C 
HETATM   20  C           1     175.202 185.379 285.053  0.00  0.00     0.035 C 
HETATM   21  C           1     174.617 185.454 286.462  0.00  0.00     0.273 C 
HETATM   22  N           1     173.397 186.261 286.493  0.00  0.00     0.093 N 
HETATM   23  C           1     172.375 185.724 285.594  0.00  0.00     0.273 C 
HETATM   24  C           1     172.878 185.659 284.153  0.00  0.00     0.035 C 
BRANCH  22  25
HETATM   25  C           1     172.891 186.165 287.837  0.00  0.00     0.223 C 
HETATM   26  C           1     173.966 185.662 288.788  0.00  0.00     0.036 C 
HETATM   27  C           1     173.627 186.272 290.147  0.00  0.00     0.002 C 
HETATM   28  C           1     172.539 187.313 289.891  0.00  0.00     0.002 C 
HETATM   29  C           1     172.550 187.539 288.387  0.00  0.00     0.036 C 
ENDBRANCH  22  25
ENDBRANCH  18  19
ENDBRANCH  17  18
ENDBRANCH  15  17
ENDBRANCH  14  15
ENDBRANCH   5  14
BRANCH   4  30
HETATM   30  S           1     172.513 185.669 278.440  0.00  0.00    -0.105 SA
BRANCH  30  31
HETATM   31  C           1     173.032 186.652 277.007  0.00  0.00     0.119 C 
BRANCH  31  32
HETATM   32  C           1     174.413 186.248 276.596  0.00  0.00    -0.049 A 
HETATM   33  C           1     175.521 186.789 277.246  0.00  0.00     0.008 A 
HETATM   34  C           1     176.808 186.412 276.863  0.00  0.00     0.001 A 
HETATM   35  C           1     176.987 185.492 275.829  0.00  0.00     0.000 A 
HETATM   36  C           1     175.879 184.951 275.178  0.00  0.00     0.001 A 
HETATM   37  C           1     174.591 185.328 275.561  0.00  0.00     0.008 A 
ENDBRANCH  31  32
ENDBRANCH  30  31
ENDBRANCH   4  30
TORSDOF 9
ENDMDL
MODEL 2
REMARK VINA RESULT:      -9.4      6.078     10.729
REMARK  9 active torsions:
REMARK  status: ('A' for Active; 'I' for Inactive)
REMARK    1  A    between atoms: C_4  and  S_29 
REMARK    2  A    between atoms: C_5  and  C_7 
REMARK    3  A    between atoms: C_7  and  N_8 
REMARK    4  A    between atoms: N_8  and  C_9 
REMARK    5  A    between atoms: C_9  and  C_10 
REMARK    6  A    between atoms: C_10  and  C_11 
REMARK    7  A    between atoms: N_14  and  C_17 
REMARK    8  A    between atoms: S_29  and  C_36 
REMARK    9  A    between atoms: C_30  and  C_36 
ROOT
HETATM    1  C           1     175.503 185.499 272.336  0.00  0.00    -0.008 A 
HETATM    2  C           1     176.042 184.763 271.293  0.00  0.00     0.130 A 
HETATM    3  N           1     175.458 184.638 270.081  0.00  0.00    -0.253 NA
HETATM    4  C           1     174.281 185.280 269.907  0.00  0.00     0.101 A 
HETATM    5  C           1     173.664 186.039 270.889  0.00  0.00     0.006 A 
HETATM    6  C           1     174.291 186.147 272.126  0.00  0.00     0.025 A 
HETATM    7  C           1     176.132 185.583 273.512  0.00  0.00    -0.025 A 
HETATM    8  C           1     175.709 184.800 274.588  0.00  0.00     0.013 A 
HETATM    9  C           1     176.364 184.888 275.815  0.00  0.00     0.007 A 
HETATM   10  C           1     177.443 185.758 275.969  0.00  0.00    -0.062 A 
HETATM   11  C           1     177.868 186.540 274.894  0.00  0.00     0.007 A 
HETATM   12  C           1     177.212 186.453 273.667  0.00  0.00     0.013 A 
HETATM   13  C           1     178.148 185.851 277.286  0.00  0.00     0.048 C 
ENDROOT
BRANCH   5  14
HETATM   14  C           1     172.359 186.722 270.625  0.00  0.00     0.311 C 
BRANCH  14  15
HETATM   15  N           1     172.533 188.145 270.729  0.00  0.00     0.087 N 
HETATM   16  H           1     173.510 188.355 270.935  0.00  0.00     0.316 HD
BRANCH  15  17
HETATM   17  C           1     171.705 188.610 271.810  0.00  0.00     0.270 C 
BRANCH  17  18
HETATM   18  C           1     172.527 189.494 272.737  0.00  0.00     0.034 C 
BRANCH  18  19
HETATM   19  C           1     172.512 188.908 274.143  0.00  0.00    -0.010 C 
HETATM   20  C           1     171.546 187.727 274.183  0.00  0.00     0.035 C 
HETATM   21  C           1     171.637 186.983 275.515  0.00  0.00     0.273 C 
HETATM   22  N           1     173.007 186.554 275.795  0.00  0.00     0.093 N 
HETATM   23  C           1     173.928 187.690 275.835  0.00  0.00     0.273 C 
HETATM   24  C           1     173.922 188.460 274.516  0.00  0.00     0.035 C 
BRANCH  22  25
HETATM   25  C           1     172.978 185.968 277.110  0.00  0.00     0.223 C 
HETATM   26  C           1     174.007 186.623 278.019  0.00  0.00     0.036 C 
HETATM   27  C           1     173.435 186.509 279.431  0.00  0.00     0.002 C 
HETATM   28  C           1     171.989 186.043 279.273  0.00  0.00     0.002 C 
HETATM   29  C           1     171.660 186.260 277.804  0.00  0.00     0.036 C 
ENDBRANCH  22  25
ENDBRANCH  18  19
ENDBRANCH  17  18
ENDBRANCH  15  17
ENDBRANCH  14  15
ENDBRANCH   5  14
BRANCH   4  30
HETATM   30  S           1     173.462 185.139 268.294  0.00  0.00    -0.105 SA
BRANCH  30  31
HETATM   31  C           1     174.592 186.297 267.475  0.00  0.00     0.119 C 
BRANCH  31  32
HETATM   32  C           1     173.998 187.671 267.488  0.00  0.00    -0.049 A 
HETATM   33  C           1     172.712 187.880 266.990  0.00  0.00     0.008 A 
HETATM   34  C           1     172.159 189.161 267.003  0.00  0.00     0.001 A 
HETATM   35  C           1     172.891 190.232 267.515  0.00  0.00     0.000 A 
HETATM   36  C           1     174.176 190.023 268.014  0.00  0.00     0.001 A 
HETATM   37  C           1     174.731 188.743 268.001  0.00  0.00     0.008 A 
ENDBRANCH  31  32
ENDBRANCH  30  31
ENDBRANCH   4  30
TORSDOF 9
ENDMDL
MODEL 3
REMARK VINA RESULT:      -8.9      9.088     16.223
REMARK  9 active torsions:
REMARK  status: ('A' for Active; 'I' for Inactive)
REMARK    1  A    between atoms: C_4  and  S_29 
REMARK    2  A    between atoms: C_5  and  C_7 
REMARK    3  A    between atoms: C_7  and  N_8 
REMARK    4  A    between atoms: N_8  and  C_9 
REMARK    5  A    between atoms: C_9  and  C_10 
REMARK    6  A    between atoms: C_10  and  C_11 
REMARK    7  A    between atoms: N_14  and  C_17 
REMARK    8  A    between atoms: S_29  and  C_36 
REMARK    9  A    between atoms: C_30  and  C_36 
ROOT
HETATM    1  C           1     175.657 185.588 272.244  0.00  0.00    -0.008 A 
HETATM    2  C           1     174.540 186.341 271.919  0.00  0.00     0.130 A 
HETATM    3  N           1     173.929 186.299 270.715  0.00  0.00    -0.253 NA
HETATM    4  C           1     174.460 185.462 269.796  0.00  0.00     0.101 A 
HETATM    5  C           1     175.573 184.669 270.027  0.00  0.00     0.006 A 
HETATM    6  C           1     176.180 184.737 271.277  0.00  0.00     0.025 A 
HETATM    7  C           1     176.215 185.676 273.455  0.00  0.00    -0.025 A 
HETATM    8  C           1     177.370 186.438 273.637  0.00  0.00     0.013 A 
HETATM    9  C           1     177.953 186.530 274.900  0.00  0.00     0.007 A 
HETATM   10  C           1     177.382 185.861 275.982  0.00  0.00    -0.062 A 
HETATM   11  C           1     176.227 185.101 275.801  0.00  0.00     0.007 A 
HETATM   12  C           1     175.644 185.008 274.538  0.00  0.00     0.013 A 
HETATM   13  C           1     178.007 185.961 277.338  0.00  0.00     0.048 C 
ENDROOT
BRANCH   5  14
HETATM   14  C           1     176.107 183.765 268.960  0.00  0.00     0.311 C 
BRANCH  14  15
HETATM   15  N           1     177.325 184.315 268.430  0.00  0.00     0.087 N 
HETATM   16  H           1     177.448 185.267 268.775  0.00  0.00     0.316 HD
BRANCH  15  17
HETATM   17  C           1     177.209 184.335 266.997  0.00  0.00     0.270 C 
BRANCH  17  18
HETATM   18  C           1     176.776 182.963 266.502  0.00  0.00     0.034 C 
BRANCH  18  19
HETATM   19  C           1     175.878 183.123 265.282  0.00  0.00    -0.010 C 
HETATM   20  C           1     174.440 182.796 265.672  0.00  0.00     0.035 C 
HETATM   21  C           1     173.470 183.127 264.539  0.00  0.00     0.273 C 
HETATM   22  N           1     173.597 184.522 264.116  0.00  0.00     0.093 N 
HETATM   23  C           1     174.956 184.824 263.667  0.00  0.00     0.273 C 
HETATM   24  C           1     175.981 184.555 264.767  0.00  0.00     0.035 C 
BRANCH  22  25
HETATM   25  C           1     172.719 184.676 262.987  0.00  0.00     0.223 C 
HETATM   26  C           1     171.464 185.444 263.374  0.00  0.00     0.036 C 
HETATM   27  C           1     171.018 186.164 262.102  0.00  0.00     0.002 C 
HETATM   28  C           1     172.160 186.014 261.100  0.00  0.00     0.002 C 
HETATM   29  C           1     173.354 185.553 261.922  0.00  0.00     0.036 C 
ENDBRANCH  22  25
ENDBRANCH  18  19
ENDBRANCH  17  18
ENDBRANCH  15  17
ENDBRANCH  14  15
ENDBRANCH   5  14
BRANCH   4  30
HETATM   30  S           1     173.670 185.373 268.164  0.00  0.00    -0.105 SA
BRANCH  30  31
HETATM   31  C           1     174.501 186.860 267.539  0.00  0.00     0.119 C 
BRANCH  31  32
HETATM   32  C           1     173.496 187.954 267.353  0.00  0.00    -0.049 A 
HETATM   33  C           1     172.286 187.689 266.714  0.00  0.00     0.008 A 
HETATM   34  C           1     171.351 188.709 266.540  0.00  0.00     0.001 A 
HETATM   35  C           1     171.626 189.994 267.007  0.00  0.00     0.000 A 
HETATM   36  C           1     172.836 190.260 267.647  0.00  0.00     0.001 A 
HETATM   37  C           1     173.772 189.240 267.820  0.00  0.00     0.008 A 
ENDBRANCH  31  32
ENDBRANCH  30  31
ENDBRANCH   4  30
TORSDOF 9
ENDMDL
MODEL 4
REMARK VINA RESULT:      -8.8      8.348     12.348
REMARK  9 active torsions:
REMARK  status: ('A' for Active; 'I' for Inactive)
REMARK    1  A    between atoms: C_4  and  S_29 
REMARK    2  A    between atoms: C_5  and  C_7 
REMARK    3  A    between atoms: C_7  and  N_8 
REMARK    4  A    between atoms: N_8  and  C_9 
REMARK    5  A    between atoms: C_9  and  C_10 
REMARK    6  A    between atoms: C_10  and  C_11 
REMARK    7  A    between atoms: N_14  and  C_17 
REMARK    8  A    between atoms: S_29  and  C_36 
REMARK    9  A    between atoms: C_30  and  C_36 
ROOT
HETATM    1  C           1     175.520 185.464 272.311  0.00  0.00    -0.008 A 
HETATM    2  C           1     176.071 184.656 271.329  0.00  0.00     0.130 A 
HETATM    3  N           1     175.527 184.482 270.105  0.00  0.00    -0.253 NA
HETATM    4  C           1     174.378 185.149 269.853  0.00  0.00     0.101 A 
HETATM    5  C           1     173.752 185.979 270.770  0.00  0.00     0.006 A 
HETATM    6  C           1     174.338 186.137 272.021  0.00  0.00     0.025 A 
HETATM    7  C           1     176.110 185.594 273.503  0.00  0.00    -0.025 A 
HETATM    8  C           1     175.623 184.885 274.603  0.00  0.00     0.013 A 
HETATM    9  C           1     176.238 185.021 275.847  0.00  0.00     0.007 A 
HETATM   10  C           1     177.339 185.864 275.993  0.00  0.00    -0.062 A 
HETATM   11  C           1     177.826 186.572 274.894  0.00  0.00     0.007 A 
HETATM   12  C           1     177.211 186.437 273.650  0.00  0.00     0.013 A 
HETATM   13  C           1     177.999 186.008 277.328  0.00  0.00     0.048 C 
ENDROOT
BRANCH   5  14
HETATM   14  C           1     172.480 186.686 270.421  0.00  0.00     0.311 C 
BRANCH  14  15
HETATM   15  N           1     171.528 186.514 271.484  0.00  0.00     0.087 N 
HETATM   16  H           1     170.762 185.921 271.163  0.00  0.00     0.316 HD
BRANCH  15  17
HETATM   17  C           1     171.016 187.814 271.828  0.00  0.00     0.270 C 
BRANCH  17  18
HETATM   18  C           1     171.185 188.756 270.645  0.00  0.00     0.034 C 
BRANCH  18  19
HETATM   19  C           1     171.728 190.093 271.134  0.00  0.00    -0.010 C 
HETATM   20  C           1     170.919 190.549 272.345  0.00  0.00     0.035 C 
HETATM   21  C           1     171.542 191.784 272.994  0.00  0.00     0.273 C 
HETATM   22  N           1     172.942 191.553 273.351  0.00  0.00     0.093 N 
HETATM   23  C           1     173.741 191.190 272.180  0.00  0.00     0.273 C 
HETATM   24  C           1     173.200 189.934 271.502  0.00  0.00     0.035 C 
BRANCH  22  25
HETATM   25  C           1     173.438 192.810 273.846  0.00  0.00     0.223 C 
HETATM   26  C           1     174.173 192.623 275.164  0.00  0.00     0.036 C 
HETATM   27  C           1     175.219 193.735 275.209  0.00  0.00     0.002 C 
HETATM   28  C           1     175.243 194.360 273.816  0.00  0.00     0.002 C 
HETATM   29  C           1     174.505 193.373 272.925  0.00  0.00     0.036 C 
ENDBRANCH  22  25
ENDBRANCH  18  19
ENDBRANCH  17  18
ENDBRANCH  15  17
ENDBRANCH  14  15
ENDBRANCH   5  14
BRANCH   4  30
HETATM   30  S           1     173.612 184.944 268.221  0.00  0.00    -0.105 SA
BRANCH  30  31
HETATM   31  C           1     174.680 186.175 267.423  0.00  0.00     0.119 C 
BRANCH  31  32
HETATM   32  C           1     173.989 187.503 267.410  0.00  0.00    -0.049 A 
HETATM   33  C           1     172.703 187.616 266.883  0.00  0.00     0.008 A 
HETATM   34  C           1     172.060 188.854 266.871  0.00  0.00     0.001 A 
HETATM   35  C           1     172.703 189.979 267.388  0.00  0.00     0.000 A 
HETATM   36  C           1     173.989 189.866 267.915  0.00  0.00     0.001 A 
HETATM   37  C           1     174.633 188.628 267.927  0.00  0.00     0.008 A 
ENDBRANCH  31  32
ENDBRANCH  30  31
ENDBRANCH   4  30
TORSDOF 9
ENDMDL
MODEL 5
REMARK VINA RESULT:      -8.7      9.682     17.022
REMARK  9 active torsions:
REMARK  status: ('A' for Active; 'I' for Inactive)
REMARK    1  A    between atoms: C_4  and  S_29 
REMARK    2  A    between atoms: C_5  and  C_7 
REMARK    3  A    between atoms: C_7  and  N_8 
REMARK    4  A    between atoms: N_8  and  C_9 
REMARK    5  A    between atoms: C_9  and  C_10 
REMARK    6  A    between atoms: C_10  and  C_11 
REMARK    7  A    between atoms: N_14  and  C_17 
REMARK    8  A    between atoms: S_29  and  C_36 
REMARK    9  A    between atoms: C_30  and  C_36 
ROOT
HETATM    1  C           1     175.590 185.574 272.209  0.00  0.00    -0.008 A 
HETATM    2  C           1     174.450 186.292 271.886  0.00  0.00     0.130 A 
HETATM    3  N           1     173.840 186.233 270.682  0.00  0.00    -0.253 NA
HETATM    4  C           1     174.397 185.417 269.760  0.00  0.00     0.101 A 
HETATM    5  C           1     175.535 184.659 269.989  0.00  0.00     0.006 A 
HETATM    6  C           1     176.140 184.742 271.239  0.00  0.00     0.025 A 
HETATM    7  C           1     176.146 185.676 273.419  0.00  0.00    -0.025 A 
HETATM    8  C           1     177.276 186.474 273.603  0.00  0.00     0.013 A 
HETATM    9  C           1     177.856 186.581 274.867  0.00  0.00     0.007 A 
HETATM   10  C           1     177.307 185.891 275.947  0.00  0.00    -0.062 A 
HETATM   11  C           1     176.177 185.095 275.764  0.00  0.00     0.007 A 
HETATM   12  C           1     175.597 184.987 274.501  0.00  0.00     0.013 A 
HETATM   13  C           1     177.929 186.007 277.303  0.00  0.00     0.048 C 
ENDROOT
BRANCH   5  14
HETATM   14  C           1     176.097 183.776 268.919  0.00  0.00     0.311 C 
BRANCH  14  15
HETATM   15  N           1     177.333 184.331 268.437  0.00  0.00     0.087 N 
HETATM   16  H           1     177.354 185.332 268.631  0.00  0.00     0.316 HD
BRANCH  15  17
HETATM   17  C           1     177.385 184.116 267.016  0.00  0.00     0.270 C 
BRANCH  17  18
HETATM   18  C           1     176.289 183.141 266.609  0.00  0.00     0.034 C 
BRANCH  18  19
HETATM   19  C           1     176.491 182.727 265.157  0.00  0.00    -0.010 C 
HETATM   20  C           1     176.672 183.977 264.300  0.00  0.00     0.035 C 
HETATM   21  C           1     177.071 183.614 262.871  0.00  0.00     0.273 C 
HETATM   22  N           1     178.273 182.780 262.846  0.00  0.00     0.093 N 
HETATM   23  C           1     178.083 181.543 263.602  0.00  0.00     0.273 C 
HETATM   24  C           1     177.720 181.828 265.058  0.00  0.00     0.035 C 
BRANCH  22  25
HETATM   25  C           1     178.480 182.423 261.467  0.00  0.00     0.223 C 
HETATM   26  C           1     179.885 181.883 261.250  0.00  0.00     0.036 C 
HETATM   27  C           1     179.772 180.908 260.079  0.00  0.00     0.002 C 
HETATM   28  C           1     178.278 180.708 259.830  0.00  0.00     0.002 C 
HETATM   29  C           1     177.591 181.257 261.070  0.00  0.00     0.036 C 
ENDBRANCH  22  25
ENDBRANCH  18  19
ENDBRANCH  17  18
ENDBRANCH  15  17
ENDBRANCH  14  15
ENDBRANCH   5  14
BRANCH   4  30
HETATM   30  S           1     173.610 185.307 268.128  0.00  0.00    -0.105 SA
BRANCH  30  31
HETATM   31  C           1     174.624 186.627 267.408  0.00  0.00     0.119 C 
BRANCH  31  32
HETATM   32  C           1     173.853 187.911 267.414  0.00  0.00    -0.049 A 
HETATM   33  C           1     172.562 187.951 266.889  0.00  0.00     0.008 A 
HETATM   34  C           1     171.844 189.147 266.894  0.00  0.00     0.001 A 
HETATM   35  C           1     172.418 190.303 267.425  0.00  0.00     0.000 A 
HETATM   36  C           1     173.709 190.262 267.949  0.00  0.00     0.001 A 
HETATM   37  C           1     174.428 189.067 267.944  0.00  0.00     0.008 A 
ENDBRANCH  31  32
ENDBRANCH  30  31
ENDBRANCH   4  30
TORSDOF 9
ENDMDL
MODEL 6
REMARK VINA RESULT:      -8.7      9.168     15.777
REMARK  9 active torsions:
REMARK  status: ('A' for Active; 'I' for Inactive)
REMARK    1  A    between atoms: C_4  and  S_29 
REMARK    2  A    between atoms: C_5  and  C_7 
REMARK    3  A    between atoms: C_7  and  N_8 
REMARK    4  A    between atoms: N_8  and  C_9 
REMARK    5  A    between atoms: C_9  and  C_10 
REMARK    6  A    between atoms: C_10  and  C_11 
REMARK    7  A    between atoms: N_14  and  C_17 
REMARK    8  A    between atoms: S_29  and  C_36 
REMARK    9  A    between atoms: C_30  and  C_36 
ROOT
HETATM    1  C           1     175.555 185.490 272.090  0.00  0.00    -0.008 A 
HETATM    2  C           1     174.448 186.259 271.766  0.00  0.00     0.130 A 
HETATM    3  N           1     173.827 186.213 270.567  0.00  0.00    -0.253 NA
HETATM    4  C           1     174.336 185.357 269.653  0.00  0.00     0.101 A 
HETATM    5  C           1     175.437 184.548 269.884  0.00  0.00     0.006 A 
HETATM    6  C           1     176.056 184.619 271.128  0.00  0.00     0.025 A 
HETATM    7  C           1     176.125 185.583 273.295  0.00  0.00    -0.025 A 
HETATM    8  C           1     177.294 186.327 273.459  0.00  0.00     0.013 A 
HETATM    9  C           1     177.889 186.423 274.716  0.00  0.00     0.007 A 
HETATM   10  C           1     177.316 185.776 275.811  0.00  0.00    -0.062 A 
HETATM   11  C           1     176.147 185.033 275.648  0.00  0.00     0.007 A 
HETATM   12  C           1     175.552 184.936 274.391  0.00  0.00     0.013 A 
HETATM   13  C           1     177.954 185.881 277.160  0.00  0.00     0.048 C 
ENDROOT
BRANCH   5  14
HETATM   14  C           1     175.947 183.624 268.823  0.00  0.00     0.311 C 
BRANCH  14  15
HETATM   15  N           1     175.386 182.314 269.018  0.00  0.00     0.087 N 
HETATM   16  H           1     176.131 181.655 269.242  0.00  0.00     0.316 HD
BRANCH  15  17
HETATM   17  C           1     174.753 181.921 267.788  0.00  0.00     0.270 C 
BRANCH  17  18
HETATM   18  C           1     174.951 180.428 267.568  0.00  0.00     0.034 C 
BRANCH  18  19
HETATM   19  C           1     176.429 180.141 267.333  0.00  0.00    -0.010 C 
HETATM   20  C           1     176.679 178.644 267.489  0.00  0.00     0.035 C 
HETATM   21  C           1     178.103 178.275 267.074  0.00  0.00     0.273 C 
HETATM   22  N           1     178.395 178.719 265.711  0.00  0.00     0.093 N 
HETATM   23  C           1     178.232 180.166 265.572  0.00  0.00     0.273 C 
HETATM   24  C           1     176.814 180.605 265.932  0.00  0.00     0.035 C 
BRANCH  22  25
HETATM   25  C           1     179.782 178.411 265.483  0.00  0.00     0.223 C 
HETATM   26  C           1     180.599 179.682 265.304  0.00  0.00     0.036 C 
HETATM   27  C           1     182.002 179.338 265.801  0.00  0.00     0.002 C 
HETATM   28  C           1     181.893 177.983 266.495  0.00  0.00     0.002 C 
HETATM   29  C           1     180.403 177.764 266.708  0.00  0.00     0.036 C 
ENDBRANCH  22  25
ENDBRANCH  18  19
ENDBRANCH  17  18
ENDBRANCH  15  17
ENDBRANCH  14  15
ENDBRANCH   5  14
BRANCH   4  30
HETATM   30  S           1     173.530 185.263 268.029  0.00  0.00    -0.105 SA
BRANCH  30  31
HETATM   31  C           1     174.591 186.535 267.288  0.00  0.00     0.119 C 
BRANCH  31  32
HETATM   32  C           1     173.911 187.866 267.375  0.00  0.00    -0.049 A 
HETATM   33  C           1     174.585 188.960 267.916  0.00  0.00     0.008 A 
HETATM   34  C           1     173.951 190.200 267.997  0.00  0.00     0.001 A 
HETATM   35  C           1     172.643 190.346 267.535  0.00  0.00     0.000 A 
HETATM   36  C           1     171.968 189.252 266.993  0.00  0.00     0.001 A 
HETATM   37  C           1     172.602 188.011 266.913  0.00  0.00     0.008 A 
ENDBRANCH  31  32
ENDBRANCH  30  31
ENDBRANCH   4  30
TORSDOF 9
ENDMDL
MODEL 7
REMARK VINA RESULT:      -8.4      8.916     13.058
REMARK  9 active torsions:
REMARK  status: ('A' for Active; 'I' for Inactive)
REMARK    1  A    between atoms: C_4  and  S_29 
REMARK    2  A    between atoms: C_5  and  C_7 
REMARK    3  A    between atoms: C_7  and  N_8 
REMARK    4  A    between atoms: N_8  and  C_9 
REMARK    5  A    between atoms: C_9  and  C_10 
REMARK    6  A    between atoms: C_10  and  C_11 
REMARK    7  A    between atoms: N_14  and  C_17 
REMARK    8  A    between atoms: S_29  and  C_36 
REMARK    9  A    between atoms: C_30  and  C_36 
ROOT
HETATM    1  C           1     174.425 185.575 273.194  0.00  0.00    -0.008 A 
HETATM    2  C           1     173.308 186.382 273.344  0.00  0.00     0.130 A 
HETATM    3  N           1     172.289 186.427 272.458  0.00  0.00    -0.253 NA
HETATM    4  C           1     172.393 185.627 271.374  0.00  0.00     0.101 A 
HETATM    5  C           1     173.470 184.786 271.137  0.00  0.00     0.006 A 
HETATM    6  C           1     174.503 184.762 272.068  0.00  0.00     0.025 A 
HETATM    7  C           1     175.399 185.576 274.108  0.00  0.00    -0.025 A 
HETATM    8  C           1     176.576 186.288 273.872  0.00  0.00     0.013 A 
HETATM    9  C           1     177.594 186.290 274.826  0.00  0.00     0.007 A 
HETATM   10  C           1     177.436 185.580 276.015  0.00  0.00    -0.062 A 
HETATM   11  C           1     176.259 184.869 276.253  0.00  0.00     0.007 A 
HETATM   12  C           1     175.242 184.867 275.299  0.00  0.00     0.013 A 
HETATM   13  C           1     178.527 185.583 277.039  0.00  0.00     0.048 C 
ENDROOT
BRANCH   5  14
HETATM   14  C           1     173.518 183.926 269.913  0.00  0.00     0.311 C 
BRANCH  14  15
HETATM   15  N           1     174.682 184.259 269.137  0.00  0.00     0.087 N 
HETATM   16  H           1     175.441 184.529 269.762  0.00  0.00     0.316 HD
BRANCH  15  17
HETATM   17  C           1     174.340 185.370 268.290  0.00  0.00     0.270 C 
BRANCH  17  18
HETATM   18  C           1     175.347 186.493 268.495  0.00  0.00     0.034 C 
BRANCH  18  19
HETATM   19  C           1     174.629 187.727 269.028  0.00  0.00    -0.010 C 
HETATM   20  C           1     175.103 188.006 270.452  0.00  0.00     0.035 C 
HETATM   21  C           1     174.563 189.340 270.964  0.00  0.00     0.273 C 
HETATM   22  N           1     174.916 190.440 270.066  0.00  0.00     0.093 N 
HETATM   23  C           1     174.398 190.217 268.716  0.00  0.00     0.273 C 
HETATM   24  C           1     174.932 188.915 268.121  0.00  0.00     0.035 C 
BRANCH  22  25
HETATM   25  C           1     174.265 191.609 270.596  0.00  0.00     0.223 C 
HETATM   26  C           1     172.846 191.732 270.061  0.00  0.00     0.036 C 
HETATM   27  C           1     172.060 192.459 271.151  0.00  0.00     0.002 C 
HETATM   28  C           1     172.964 192.495 272.381  0.00  0.00     0.002 C 
HETATM   29  C           1     174.065 191.484 272.097  0.00  0.00     0.036 C 
ENDBRANCH  22  25
ENDBRANCH  18  19
ENDBRANCH  17  18
ENDBRANCH  15  17
ENDBRANCH  14  15
ENDBRANCH   5  14
BRANCH   4  30
HETATM   30  S           1     171.047 185.656 270.157  0.00  0.00    -0.105 SA
BRANCH  30  31
HETATM   31  C           1     170.757 187.438 270.331  0.00  0.00     0.119 C 
BRANCH  31  32
HETATM   32  C           1     170.918 188.103 268.999  0.00  0.00    -0.049 A 
HETATM   33  C           1     171.401 187.378 267.911  0.00  0.00     0.008 A 
HETATM   34  C           1     171.551 187.998 266.670  0.00  0.00     0.001 A 
HETATM   35  C           1     171.216 189.344 266.519  0.00  0.00     0.000 A 
HETATM   36  C           1     170.733 190.069 267.607  0.00  0.00     0.001 A 
HETATM   37  C           1     170.584 189.450 268.848  0.00  0.00     0.008 A 
ENDBRANCH  31  32
ENDBRANCH  30  31
ENDBRANCH   4  30
TORSDOF 9
ENDMDL
MODEL 8
REMARK VINA RESULT:      -8.4      9.036     13.785
REMARK  9 active torsions:
REMARK  status: ('A' for Active; 'I' for Inactive)
REMARK    1  A    between atoms: C_4  and  S_29 
REMARK    2  A    between atoms: C_5  and  C_7 
REMARK    3  A    between atoms: C_7  and  N_8 
REMARK    4  A    between atoms: N_8  and  C_9 
REMARK    5  A    between atoms: C_9  and  C_10 
REMARK    6  A    between atoms: C_10  and  C_11 
REMARK    7  A    between atoms: N_14  and  C_17 
REMARK    8  A    between atoms: S_29  and  C_36 
REMARK    9  A    between atoms: C_30  and  C_36 
ROOT
HETATM    1  C           1     175.357 185.556 272.452  0.00  0.00    -0.008 A 
HETATM    2  C           1     175.738 184.691 271.438  0.00  0.00     0.130 A 
HETATM    3  N           1     175.089 184.583 270.259  0.00  0.00    -0.253 NA
HETATM    4  C           1     174.009 185.379 270.087  0.00  0.00     0.101 A 
HETATM    5  C           1     173.551 186.274 271.041  0.00  0.00     0.006 A 
HETATM    6  C           1     174.242 186.361 272.246  0.00  0.00     0.025 A 
HETATM    7  C           1     176.043 185.615 273.598  0.00  0.00    -0.025 A 
HETATM    8  C           1     175.560 184.965 274.734  0.00  0.00     0.013 A 
HETATM    9  C           1     176.276 185.027 275.929  0.00  0.00     0.007 A 
HETATM   10  C           1     177.474 185.737 275.989  0.00  0.00    -0.062 A 
HETATM   11  C           1     177.958 186.386 274.853  0.00  0.00     0.007 A 
HETATM   12  C           1     177.242 186.326 273.658  0.00  0.00     0.013 A 
HETATM   13  C           1     178.243 185.802 277.272  0.00  0.00     0.048 C 
ENDROOT
BRANCH   5  14
HETATM   14  C           1     172.347 187.123 270.781  0.00  0.00     0.311 C 
BRANCH  14  15
HETATM   15  N           1     171.755 187.512 272.032  0.00  0.00     0.087 N 
HETATM   16  H           1     170.912 186.961 272.196  0.00  0.00     0.316 HD
BRANCH  15  17
HETATM   17  C           1     171.406 188.904 271.938  0.00  0.00     0.270 C 
BRANCH  17  18
HETATM   18  C           1     172.654 189.722 271.639  0.00  0.00     0.034 C 
BRANCH  18  19
HETATM   19  C           1     172.273 190.951 270.824  0.00  0.00    -0.010 C 
HETATM   20  C           1     170.773 190.924 270.547  0.00  0.00     0.035 C 
HETATM   21  C           1     170.305 192.227 269.902  0.00  0.00     0.273 C 
HETATM   22  N           1     170.670 193.388 270.715  0.00  0.00     0.093 N 
HETATM   23  C           1     172.116 193.465 270.920  0.00  0.00     0.273 C 
HETATM   24  C           1     172.651 192.207 271.603  0.00  0.00     0.035 C 
BRANCH  22  25
HETATM   25  C           1     170.274 194.544 269.955  0.00  0.00     0.223 C 
HETATM   26  C           1     170.604 194.366 268.481  0.00  0.00     0.036 C 
HETATM   27  C           1     169.562 195.191 267.727  0.00  0.00     0.002 C 
HETATM   28  C           1     168.509 195.598 268.755  0.00  0.00     0.002 C 
HETATM   29  C           1     168.764 194.705 269.960  0.00  0.00     0.036 C 
ENDBRANCH  22  25
ENDBRANCH  18  19
ENDBRANCH  17  18
ENDBRANCH  15  17
ENDBRANCH  14  15
ENDBRANCH   5  14
BRANCH   4  30
HETATM   30  S           1     173.107 185.266 268.516  0.00  0.00    -0.105 SA
BRANCH  30  31
HETATM   31  C           1     174.304 186.282 267.608  0.00  0.00     0.119 C 
BRANCH  31  32
HETATM   32  C           1     173.818 187.697 267.550  0.00  0.00    -0.049 A 
HETATM   33  C           1     174.645 188.737 267.969  0.00  0.00     0.008 A 
HETATM   34  C           1     174.191 190.055 267.915  0.00  0.00     0.001 A 
HETATM   35  C           1     172.909 190.332 267.439  0.00  0.00     0.000 A 
HETATM   36  C           1     172.081 189.291 267.019  0.00  0.00     0.001 A 
HETATM   37  C           1     172.535 187.973 267.074  0.00  0.00     0.008 A 
ENDBRANCH  31  32
ENDBRANCH  30  31
ENDBRANCH   4  30
TORSDOF 9
ENDMDL
MODEL 9
REMARK VINA RESULT:      -8.4      8.965     13.151
REMARK  9 active torsions:
REMARK  status: ('A' for Active; 'I' for Inactive)
REMARK    1  A    between atoms: C_4  and  S_29 
REMARK    2  A    between atoms: C_5  and  C_7 
REMARK    3  A    between atoms: C_7  and  N_8 
REMARK    4  A    between atoms: N_8  and  C_9 
REMARK    5  A    between atoms: C_9  and  C_10 
REMARK    6  A    between atoms: C_10  and  C_11 
REMARK    7  A    between atoms: N_14  and  C_17 
REMARK    8  A    between atoms: S_29  and  C_36 
REMARK    9  A    between atoms: C_30  and  C_36 
ROOT
HETATM    1  C           1     172.804 186.192 266.895  0.00  0.00    -0.008 A 
HETATM    2  C           1     173.352 185.663 265.737  0.00  0.00     0.130 A 
HETATM    3  N           1     173.670 184.360 265.584  0.00  0.00    -0.253 NA
HETATM    4  C           1     173.427 183.548 266.637  0.00  0.00     0.101 A 
HETATM    5  C           1     172.882 183.983 267.835  0.00  0.00     0.006 A 
HETATM    6  C           1     172.565 185.332 267.962  0.00  0.00     0.025 A 
HETATM    7  C           1     172.511 187.493 266.984  0.00  0.00    -0.025 A 
HETATM    8  C           1     173.370 188.356 267.666  0.00  0.00     0.013 A 
HETATM    9  C           1     173.064 189.713 267.758  0.00  0.00     0.007 A 
HETATM   10  C           1     171.901 190.209 267.170  0.00  0.00    -0.062 A 
HETATM   11  C           1     171.043 189.346 266.487  0.00  0.00     0.007 A 
HETATM   12  C           1     171.347 187.989 266.395  0.00  0.00     0.013 A 
HETATM   13  C           1     171.574 191.666 267.269  0.00  0.00     0.048 C 
ENDROOT
BRANCH   5  14
HETATM   14  C           1     172.640 183.027 268.960  0.00  0.00     0.311 C 
BRANCH  14  15
HETATM   15  N           1     171.403 183.358 269.615  0.00  0.00     0.087 N 
HETATM   16  H           1     171.011 184.200 269.195  0.00  0.00     0.316 HD
BRANCH  15  17
HETATM   17  C           1     171.694 183.604 271.001  0.00  0.00     0.270 C 
BRANCH  17  18
HETATM   18  C           1     171.496 185.082 271.308  0.00  0.00     0.034 C 
BRANCH  18  19
HETATM   19  C           1     172.770 185.648 271.920  0.00  0.00    -0.010 C 
HETATM   20  C           1     172.417 186.419 273.189  0.00  0.00     0.035 C 
HETATM   21  C           1     173.673 186.843 273.948  0.00  0.00     0.273 C 
HETATM   22  N           1     174.529 185.695 274.250  0.00  0.00     0.093 N 
HETATM   23  C           1     174.936 184.995 273.032  0.00  0.00     0.273 C 
HETATM   24  C           1     173.727 184.503 272.239  0.00  0.00     0.035 C 
BRANCH  22  25
HETATM   25  C           1     175.714 186.234 274.862  0.00  0.00     0.223 C 
HETATM   26  C           1     176.119 185.415 276.079  0.00  0.00     0.036 C 
HETATM   27  C           1     177.637 185.558 276.181  0.00  0.00     0.002 C 
HETATM   28  C           1     178.094 186.222 274.884  0.00  0.00     0.002 C 
HETATM   29  C           1     176.911 186.101 273.936  0.00  0.00     0.036 C 
ENDBRANCH  22  25
ENDBRANCH  18  19
ENDBRANCH  17  18
ENDBRANCH  15  17
ENDBRANCH  14  15
ENDBRANCH   5  14
BRANCH   4  30
HETATM   30  S           1     173.839 181.788 266.473  0.00  0.00    -0.105 SA
BRANCH  30  31
HETATM   31  C           1     175.629 182.081 266.422  0.00  0.00     0.119 C 
BRANCH  31  32
HETATM   32  C           1     176.082 182.641 267.734  0.00  0.00    -0.049 A 
HETATM   33  C           1     176.631 183.921 267.795  0.00  0.00     0.008 A 
HETATM   34  C           1     177.054 184.442 269.018  0.00  0.00     0.001 A 
HETATM   35  C           1     176.926 183.682 270.181  0.00  0.00     0.000 A 
HETATM   36  C           1     176.377 182.402 270.121  0.00  0.00     0.001 A 
HETATM   37  C           1     175.955 181.880 268.897  0.00  0.00     0.008 A 
ENDBRANCH  31  32
ENDBRANCH  30  31
ENDBRANCH   4  30
TORSDOF 9
ENDMDL
