REMARK  10 active torsions:
REMARK  status: ('A' for Active; 'I' for Inactive)
REMARK    1  A    between atoms: C2_2  and  C3_3 
REMARK    2  A    between atoms: C3_3  and  N1_4 
REMARK    3  A    between atoms: C8_9  and  C9_10 
REMARK    4  A    between atoms: C9_10  and  C10_11 
REMARK    5  A    between atoms: C10_11  and  N2_12 
REMARK    6  A    between atoms: N2_12  and  C11_13 
REMARK    7  A    between atoms: C11_13  and  C12_14 
REMARK    8  A    between atoms: C20_23  and  S1_24 
REMARK    9  A    between atoms: S1_24  and  C21_25 
REMARK   10  A    between atoms: C21_25  and  C22_26 
ROOT
HETATM    1  C12 UNL     1      -0.181   1.440  -1.645  1.00  0.00     0.006 A 
HETATM    2  C13 UNL     1      -0.460   2.370  -2.661  1.00  0.00     0.025 A 
HETATM    3  C14 UNL     1      -1.062   1.956  -3.854  1.00  0.00    -0.007 A 
HETATM    4  C15 UNL     1      -1.343   2.865  -4.884  1.00  0.00     0.014 A 
HETATM    5  C16 UNL     1      -1.933   2.416  -6.069  1.00  0.00     0.001 A 
HETATM    6  C17 UNL     1      -2.247   1.062  -6.231  1.00  0.00     0.002 A 
HETATM    7  C18 UNL     1      -1.979   0.151  -5.205  1.00  0.00     0.032 A 
HETATM    8  C19 UNL     1      -1.386   0.593  -4.017  1.00  0.00     0.068 A 
HETATM    9  N3  UNL     1      -1.119  -0.289  -3.021  1.00  0.00    -0.241 NA
HETATM   10  C20 UNL     1      -0.522   0.084  -1.858  1.00  0.00     0.102 A 
ENDROOT
BRANCH   1  11
HETATM   11  C11 UNL     1       0.447   1.918  -0.353  1.00  0.00     0.311 C 
BRANCH  11  12
HETATM   12  N2  UNL     1       1.817   1.404  -0.225  1.00  0.00     0.087 N 
HETATM   13  H21 UNL     1       2.369   1.744  -1.048  1.00  0.00     0.316 HD
BRANCH  12  14
HETATM   14  C10 UNL     1       2.473   1.887   1.005  1.00  0.00     0.270 C 
BRANCH  14  15
HETATM   15  C9  UNL     1       2.873   0.702   1.895  1.00  0.00     0.034 C 
BRANCH  15  16
HETATM   16  C8  UNL     1       1.660  -0.024   2.519  1.00  0.00    -0.010 C 
HETATM   17  C5  UNL     1       0.923   0.854   3.560  1.00  0.00     0.035 C 
HETATM   18  C4  UNL     1       0.083   0.014   4.542  1.00  0.00     0.272 C 
HETATM   19  N1  UNL     1      -0.318  -1.260   3.911  1.00  0.00     0.088 N 
HETATM   20  C6  UNL     1       0.865  -2.129   3.712  1.00  0.00     0.272 C 
HETATM   21  C7  UNL     1       2.085  -1.359   3.155  1.00  0.00     0.035 C 
BRANCH  19  22
HETATM   22  C3  UNL     1      -1.362  -1.951   4.695  1.00  0.00     0.272 C 
BRANCH  22  23
HETATM   23  C2  UNL     1      -2.752  -1.466   4.267  1.00  0.00     0.026 C 
HETATM   24  C1  UNL     1      -3.853  -2.140   5.080  1.00  0.00     0.007 C 
ENDBRANCH  22  23
ENDBRANCH  19  22
ENDBRANCH  15  16
ENDBRANCH  14  15
ENDBRANCH  12  14
ENDBRANCH  11  12
ENDBRANCH   1  11
BRANCH  10  25
HETATM   25  S1  UNL     1      -0.208  -1.188  -0.627  1.00  0.00    -0.105 SA
BRANCH  25  26
HETATM   26  C21 UNL     1       1.345  -1.766  -1.402  1.00  0.00     0.119 C 
BRANCH  26  27
HETATM   27  C22 UNL     1       1.044  -2.607  -2.612  1.00  0.00    -0.049 A 
HETATM   28  C23 UNL     1       1.341  -2.134  -3.903  1.00  0.00     0.008 A 
HETATM   29  C24 UNL     1       1.004  -2.896  -5.027  1.00  0.00     0.001 A 
HETATM   30  C25 UNL     1       0.385  -4.138  -4.869  1.00  0.00     0.000 A 
HETATM   31  C26 UNL     1       0.102  -4.623  -3.589  1.00  0.00     0.001 A 
HETATM   32  C27 UNL     1       0.430  -3.862  -2.463  1.00  0.00     0.008 A 
ENDBRANCH  26  27
ENDBRANCH  25  26
ENDBRANCH  10  25
TORSDOF 10
