MODEL 1
REMARK VINA RESULT:      -7.8      0.000      0.000
REMARK  9 active torsions:
REMARK  status: ('A' for Active; 'I' for Inactive)
REMARK    1  A    between atoms: C_2  and  C_18 
REMARK    2  A    between atoms: C_5  and  S_9 
REMARK    3  A    between atoms: C_6  and  C_8 
REMARK    4  A    between atoms: C_8  and  N_17 
REMARK    5  A    between atoms: S_9  and  C_10 
REMARK    6  A    between atoms: C_10  and  C_11 
REMARK    7  A    between atoms: N_17  and  C_19 
REMARK    8  A    between atoms: C_19  and  C_20 
REMARK    9  A    between atoms: C_20  and  N_21 
ROOT
HETATM    1  C           1     174.517 186.389 272.004  0.00  0.00     0.101 A 
HETATM    2  C           1     175.619 185.613 272.329  0.00  0.00    -0.010 A 
HETATM    3  N           1     173.937 186.395 270.783  0.00  0.00    -0.359 N 
ATOM      4  HN          1     173.126 186.979 270.579  1.00  0.00     0.166 HD
HETATM    5  C           1     174.486 185.590 269.848  0.00  0.00     0.077 A 
HETATM    6  C           1     175.586 184.780 270.078  0.00  0.00     0.004 A 
HETATM    7  C           1     176.162 184.795 271.344  0.00  0.00     0.025 A 
ENDROOT
BRANCH   6   8
HETATM    8  C           1     176.142 183.912 268.992  0.00  0.00     0.311 C 
BRANCH   8   9
HETATM    9  N           1     177.237 184.586 268.351  0.00  0.00     0.089 N 
HETATM   10  H           1     177.057 185.590 268.337  0.00  0.00     0.316 HD
BRANCH   9  11
HETATM   11  C           1     177.323 184.096 267.001  0.00  0.00     0.300 C 
BRANCH  11  12
HETATM   12  C           1     176.256 183.033 266.777  0.00  0.00     0.302 C 
BRANCH  12  13
HETATM   13  N           1     175.767 183.122 265.427  0.00  0.00     0.093 N 
HETATM   14  C           1     174.297 183.041 265.498  0.00  0.00     0.302 C 
HETATM   15  C           1     173.611 183.375 264.156  0.00  0.00     0.302 C 
HETATM   16  N           1     174.004 184.691 263.622  0.00  0.00     0.087 N 
HETATM   17  C           1     173.498 184.766 262.278  0.00  0.00     0.310 C 
HETATM   18  C           1     175.474 184.771 263.551  0.00  0.00     0.302 C 
HETATM   19  C           1     176.161 184.436 264.893  0.00  0.00     0.302 C 
ENDBRANCH  12  13
ENDBRANCH  11  12
ENDBRANCH   9  11
ENDBRANCH   8   9
ENDBRANCH   6   8
BRANCH   5  20
HETATM   20  S           1     173.738 185.568 268.194  0.00  0.00    -0.107 SA
BRANCH  20  21
HETATM   21  C           1     174.541 187.108 267.671  0.00  0.00     0.119 C 
BRANCH  21  22
HETATM   22  C           1     173.502 188.162 267.445  0.00  0.00    -0.049 A 
HETATM   23  C           1     173.710 189.458 267.915  0.00  0.00     0.008 A 
HETATM   24  C           1     172.741 190.441 267.706  0.00  0.00     0.001 A 
HETATM   25  C           1     171.566 190.125 267.025  0.00  0.00     0.000 A 
HETATM   26  C           1     171.357 188.829 266.555  0.00  0.00     0.001 A 
HETATM   27  C           1     172.326 187.847 266.766  0.00  0.00     0.008 A 
ENDBRANCH  21  22
ENDBRANCH  20  21
ENDBRANCH   5  20
BRANCH   2  28
HETATM   28  C           1     176.147 185.652 273.557  0.00  0.00    -0.024 A 
HETATM   29  C           1     175.483 185.043 274.622  0.00  0.00     0.015 A 
HETATM   30  C           1     176.033 185.083 275.902  0.00  0.00     0.043 A 
HETATM   31  C           1     177.249 185.733 276.118  0.00  0.00     0.116 A 
HETATM   32  F           1     177.770 185.773 277.330  0.00  0.00    -0.206 F 
HETATM   33  C           1     177.913 186.343 275.054  0.00  0.00     0.043 A 
HETATM   34  C           1     177.362 186.302 273.773  0.00  0.00     0.015 A 
ENDBRANCH   2  28
TORSDOF 9
ENDMDL
MODEL 2
REMARK VINA RESULT:      -7.8      8.502     13.337
REMARK  9 active torsions:
REMARK  status: ('A' for Active; 'I' for Inactive)
REMARK    1  A    between atoms: C_2  and  C_18 
REMARK    2  A    between atoms: C_5  and  S_9 
REMARK    3  A    between atoms: C_6  and  C_8 
REMARK    4  A    between atoms: C_8  and  N_17 
REMARK    5  A    between atoms: S_9  and  C_10 
REMARK    6  A    between atoms: C_10  and  C_11 
REMARK    7  A    between atoms: N_17  and  C_19 
REMARK    8  A    between atoms: C_19  and  C_20 
REMARK    9  A    between atoms: C_20  and  N_21 
ROOT
HETATM    1  C           1     173.423 189.058 283.604  0.00  0.00     0.101 A 
HETATM    2  C           1     172.833 189.505 282.432  0.00  0.00    -0.010 A 
HETATM    3  N           1     174.329 188.056 283.654  0.00  0.00    -0.359 N 
ATOM      4  HN          1     174.744 187.753 284.535  1.00  0.00     0.166 HD
HETATM    5  C           1     174.657 187.478 282.478  0.00  0.00     0.077 A 
HETATM    6  C           1     174.121 187.855 281.258  0.00  0.00     0.004 A 
HETATM    7  C           1     173.190 188.889 281.238  0.00  0.00     0.025 A 
ENDROOT
BRANCH   6   8
HETATM    8  C           1     174.532 187.167 279.993  0.00  0.00     0.311 C 
BRANCH   8   9
HETATM    9  N           1     173.432 186.392 279.488  0.00  0.00     0.089 N 
HETATM   10  H           1     173.444 185.466 279.916  0.00  0.00     0.316 HD
BRANCH   9  11
HETATM   11  C           1     173.602 186.263 278.066  0.00  0.00     0.300 C 
BRANCH  11  12
HETATM   12  C           1     174.962 186.820 277.665  0.00  0.00     0.302 C 
BRANCH  12  13
HETATM   13  N           1     175.465 186.087 276.533  0.00  0.00     0.093 N 
HETATM   14  C           1     174.301 185.731 275.702  0.00  0.00     0.302 C 
HETATM   15  C           1     174.698 185.162 274.323  0.00  0.00     0.302 C 
HETATM   16  N           1     175.585 186.061 273.564  0.00  0.00     0.087 N 
HETATM   17  C           1     176.068 185.316 272.433  0.00  0.00     0.310 C 
HETATM   18  C           1     176.749 186.417 274.395  0.00  0.00     0.302 C 
HETATM   19  C           1     176.352 186.986 275.776  0.00  0.00     0.302 C 
ENDBRANCH  12  13
ENDBRANCH  11  12
ENDBRANCH   9  11
ENDBRANCH   8   9
ENDBRANCH   6   8
BRANCH   5  20
HETATM   20  S           1     175.871 186.129 282.499  0.00  0.00    -0.107 SA
BRANCH  20  21
HETATM   21  C           1     174.616 184.831 282.680  0.00  0.00     0.119 C 
BRANCH  21  22
HETATM   22  C           1     174.070 184.853 284.074  0.00  0.00    -0.049 A 
HETATM   23  C           1     174.923 184.654 285.159  0.00  0.00     0.008 A 
HETATM   24  C           1     174.414 184.674 286.459  0.00  0.00     0.001 A 
HETATM   25  C           1     173.053 184.892 286.671  0.00  0.00     0.000 A 
HETATM   26  C           1     172.201 185.090 285.585  0.00  0.00     0.001 A 
HETATM   27  C           1     172.709 185.070 284.286  0.00  0.00     0.008 A 
ENDBRANCH  21  22
ENDBRANCH  20  21
ENDBRANCH   5  20
BRANCH   2  28
HETATM   28  C           1     171.942 190.501 282.450  0.00  0.00    -0.024 A 
HETATM   29  C           1     170.755 190.364 283.172  0.00  0.00     0.015 A 
HETATM   30  C           1     169.826 191.403 283.192  0.00  0.00     0.043 A 
HETATM   31  C           1     170.083 192.581 282.489  0.00  0.00     0.116 A 
HETATM   32  F           1     169.203 193.565 282.507  0.00  0.00    -0.206 F 
HETATM   33  C           1     171.268 192.719 281.767  0.00  0.00     0.043 A 
HETATM   34  C           1     172.197 191.679 281.748  0.00  0.00     0.015 A 
ENDBRANCH   2  28
TORSDOF 9
ENDMDL
MODEL 3
REMARK VINA RESULT:      -7.8      3.077      6.613
REMARK  9 active torsions:
REMARK  status: ('A' for Active; 'I' for Inactive)
REMARK    1  A    between atoms: C_2  and  C_18 
REMARK    2  A    between atoms: C_5  and  S_9 
REMARK    3  A    between atoms: C_6  and  C_8 
REMARK    4  A    between atoms: C_8  and  N_17 
REMARK    5  A    between atoms: S_9  and  C_10 
REMARK    6  A    between atoms: C_10  and  C_11 
REMARK    7  A    between atoms: N_17  and  C_19 
REMARK    8  A    between atoms: C_19  and  C_20 
REMARK    9  A    between atoms: C_20  and  N_21 
ROOT
HETATM    1  C           1     175.858 184.726 271.619  0.00  0.00     0.101 A 
HETATM    2  C           1     175.443 185.569 272.639  0.00  0.00    -0.010 A 
HETATM    3  N           1     175.229 184.624 270.428  0.00  0.00    -0.359 N 
ATOM      4  HN          1     175.562 183.993 269.699  1.00  0.00     0.166 HD
HETATM    5  C           1     174.138 185.400 270.251  0.00  0.00     0.077 A 
HETATM    6  C           1     173.647 186.271 271.210  0.00  0.00     0.004 A 
HETATM    7  C           1     174.316 186.354 272.427  0.00  0.00     0.025 A 
ENDROOT
BRANCH   6   8
HETATM    8  C           1     172.430 187.101 270.943  0.00  0.00     0.311 C 
BRANCH   8   9
HETATM    9  N           1     172.771 188.494 271.032  0.00  0.00     0.089 N 
HETATM   10  H           1     173.379 188.645 271.836  0.00  0.00     0.316 HD
BRANCH   9  11
HETATM   11  C           1     171.549 189.233 271.211  0.00  0.00     0.300 C 
BRANCH  11  12
HETATM   12  C           1     171.803 190.709 270.931  0.00  0.00     0.302 C 
BRANCH  12  13
HETATM   13  N           1     172.912 191.164 271.726  0.00  0.00     0.093 N 
HETATM   14  C           1     173.518 192.298 271.007  0.00  0.00     0.302 C 
HETATM   15  C           1     174.563 193.058 271.852  0.00  0.00     0.302 C 
HETATM   16  N           1     174.028 193.525 273.143  0.00  0.00     0.087 N 
HETATM   17  C           1     175.148 193.986 273.919  0.00  0.00     0.310 C 
HETATM   18  C           1     173.422 192.390 273.862  0.00  0.00     0.302 C 
HETATM   19  C           1     172.377 191.630 273.017  0.00  0.00     0.302 C 
ENDBRANCH  12  13
ENDBRANCH  11  12
ENDBRANCH   9  11
ENDBRANCH   8   9
ENDBRANCH   6   8
BRANCH   5  20
HETATM   20  S           1     173.263 185.294 268.664  0.00  0.00    -0.107 SA
BRANCH  20  21
HETATM   21  C           1     174.487 186.298 267.776  0.00  0.00     0.119 C 
BRANCH  21  22
HETATM   22  C           1     174.012 187.716 267.702  0.00  0.00    -0.049 A 
HETATM   23  C           1     172.731 187.998 267.230  0.00  0.00     0.008 A 
HETATM   24  C           1     172.289 189.320 267.160  0.00  0.00     0.001 A 
HETATM   25  C           1     173.128 190.357 267.564  0.00  0.00     0.000 A 
HETATM   26  C           1     174.410 190.075 268.036  0.00  0.00     0.001 A 
HETATM   27  C           1     174.852 188.753 268.105  0.00  0.00     0.008 A 
ENDBRANCH  21  22
ENDBRANCH  20  21
ENDBRANCH   5  20
BRANCH   2  28
HETATM   28  C           1     176.109 185.623 273.797  0.00  0.00    -0.024 A 
HETATM   29  C           1     177.334 186.289 273.867  0.00  0.00     0.015 A 
HETATM   30  C           1     178.028 186.347 275.075  0.00  0.00     0.043 A 
HETATM   31  C           1     177.498 185.738 276.213  0.00  0.00     0.116 A 
HETATM   32  F           1     178.156 185.791 277.357  0.00  0.00    -0.206 F 
HETATM   33  C           1     176.275 185.072 276.144  0.00  0.00     0.043 A 
HETATM   34  C           1     175.581 185.015 274.935  0.00  0.00     0.015 A 
ENDBRANCH   2  28
TORSDOF 9
ENDMDL
MODEL 4
REMARK VINA RESULT:      -7.8      1.256      2.089
REMARK  9 active torsions:
REMARK  status: ('A' for Active; 'I' for Inactive)
REMARK    1  A    between atoms: C_2  and  C_18 
REMARK    2  A    between atoms: C_5  and  S_9 
REMARK    3  A    between atoms: C_6  and  C_8 
REMARK    4  A    between atoms: C_8  and  N_17 
REMARK    5  A    between atoms: S_9  and  C_10 
REMARK    6  A    between atoms: C_10  and  C_11 
REMARK    7  A    between atoms: N_17  and  C_19 
REMARK    8  A    between atoms: C_19  and  C_20 
REMARK    9  A    between atoms: C_20  and  N_21 
ROOT
HETATM    1  C           1     174.489 186.351 272.061  0.00  0.00     0.101 A 
HETATM    2  C           1     175.619 185.603 272.356  0.00  0.00    -0.010 A 
HETATM    3  N           1     173.878 186.346 270.856  0.00  0.00    -0.359 N 
ATOM      4  HN          1     173.047 186.909 270.674  1.00  0.00     0.166 HD
HETATM    5  C           1     174.423 185.557 269.905  0.00  0.00     0.077 A 
HETATM    6  C           1     175.549 184.775 270.104  0.00  0.00     0.004 A 
HETATM    7  C           1     176.156 184.801 271.355  0.00  0.00     0.025 A 
ENDROOT
BRANCH   6   8
HETATM    8  C           1     176.098 183.923 269.001  0.00  0.00     0.311 C 
BRANCH   8   9
HETATM    9  N           1     177.255 184.560 268.433  0.00  0.00     0.089 N 
HETATM   10  H           1     177.125 185.571 268.442  0.00  0.00     0.316 HD
BRANCH   9  11
HETATM   11  C           1     177.381 184.106 267.074  0.00  0.00     0.300 C 
BRANCH  11  12
HETATM   12  C           1     176.111 183.374 266.663  0.00  0.00     0.302 C 
BRANCH  12  13
HETATM   13  N           1     176.264 182.861 265.327  0.00  0.00     0.093 N 
HETATM   14  C           1     176.450 184.024 264.441  0.00  0.00     0.302 C 
HETATM   15  C           1     176.880 183.629 263.012  0.00  0.00     0.302 C 
HETATM   16  N           1     178.096 182.796 262.988  0.00  0.00     0.087 N 
HETATM   17  C           1     178.239 182.303 261.645  0.00  0.00     0.310 C 
HETATM   18  C           1     177.910 181.634 263.874  0.00  0.00     0.302 C 
HETATM   19  C           1     177.479 182.028 265.304  0.00  0.00     0.302 C 
ENDBRANCH  12  13
ENDBRANCH  11  12
ENDBRANCH   9  11
ENDBRANCH   8   9
ENDBRANCH   6   8
BRANCH   5  20
HETATM   20  S           1     173.633 185.519 268.271  0.00  0.00    -0.107 SA
BRANCH  20  21
HETATM   21  C           1     174.541 186.965 267.657  0.00  0.00     0.119 C 
BRANCH  21  22
HETATM   22  C           1     173.595 188.112 267.481  0.00  0.00    -0.049 A 
HETATM   23  C           1     172.385 187.923 266.814  0.00  0.00     0.008 A 
HETATM   24  C           1     171.504 188.992 266.650  0.00  0.00     0.001 A 
HETATM   25  C           1     171.834 190.250 267.153  0.00  0.00     0.000 A 
HETATM   26  C           1     173.044 190.440 267.819  0.00  0.00     0.001 A 
HETATM   27  C           1     173.926 189.370 267.983  0.00  0.00     0.008 A 
ENDBRANCH  21  22
ENDBRANCH  20  21
ENDBRANCH   5  20
BRANCH   2  28
HETATM   28  C           1     176.177 185.654 273.569  0.00  0.00    -0.024 A 
HETATM   29  C           1     177.387 186.324 273.754  0.00  0.00     0.015 A 
HETATM   30  C           1     177.969 186.377 275.019  0.00  0.00     0.043 A 
HETATM   31  C           1     177.342 185.759 276.102  0.00  0.00     0.116 A 
HETATM   32  F           1     177.893 185.808 277.300  0.00  0.00    -0.206 F 
HETATM   33  C           1     176.133 185.088 275.918  0.00  0.00     0.043 A 
HETATM   34  C           1     175.551 185.036 274.651  0.00  0.00     0.015 A 
ENDBRANCH   2  28
TORSDOF 9
ENDMDL
MODEL 5
REMARK VINA RESULT:      -7.8      8.950     14.356
REMARK  9 active torsions:
REMARK  status: ('A' for Active; 'I' for Inactive)
REMARK    1  A    between atoms: C_2  and  C_18 
REMARK    2  A    between atoms: C_5  and  S_9 
REMARK    3  A    between atoms: C_6  and  C_8 
REMARK    4  A    between atoms: C_8  and  N_17 
REMARK    5  A    between atoms: S_9  and  C_10 
REMARK    6  A    between atoms: C_10  and  C_11 
REMARK    7  A    between atoms: N_17  and  C_19 
REMARK    8  A    between atoms: C_19  and  C_20 
REMARK    9  A    between atoms: C_20  and  N_21 
ROOT
HETATM    1  C           1     170.808 189.086 279.668  0.00  0.00     0.101 A 
HETATM    2  C           1     171.549 189.271 280.826  0.00  0.00    -0.010 A 
HETATM    3  N           1     170.946 188.018 278.852  0.00  0.00    -0.359 N 
ATOM      4  HN          1     170.384 187.915 278.007  1.00  0.00     0.166 HD
HETATM    5  C           1     171.865 187.096 279.211  0.00  0.00     0.077 A 
HETATM    6  C           1     172.652 187.193 280.347  0.00  0.00     0.004 A 
HETATM    7  C           1     172.488 188.304 281.168  0.00  0.00     0.025 A 
ENDROOT
BRANCH   6   8
HETATM    8  C           1     173.652 186.131 280.682  0.00  0.00     0.311 C 
BRANCH   8   9
HETATM    9  N           1     173.101 185.250 281.676  0.00  0.00     0.089 N 
HETATM   10  H           1     172.420 185.757 282.240  0.00  0.00     0.316 HD
BRANCH   9  11
HETATM   11  C           1     174.183 184.809 282.517  0.00  0.00     0.300 C 
BRANCH  11  12
HETATM   12  C           1     174.968 186.016 283.010  0.00  0.00     0.302 C 
BRANCH  12  13
HETATM   13  N           1     174.861 186.104 284.442  0.00  0.00     0.093 N 
HETATM   14  C           1     173.599 186.806 284.736  0.00  0.00     0.302 C 
HETATM   15  C           1     173.216 186.757 286.230  0.00  0.00     0.302 C 
HETATM   16  N           1     173.148 185.384 286.760  0.00  0.00     0.087 N 
HETATM   17  C           1     173.030 185.492 288.189  0.00  0.00     0.310 C 
HETATM   18  C           1     174.409 184.682 286.467  0.00  0.00     0.302 C 
HETATM   19  C           1     174.794 184.732 284.972  0.00  0.00     0.302 C 
ENDBRANCH  12  13
ENDBRANCH  11  12
ENDBRANCH   9  11
ENDBRANCH   8   9
ENDBRANCH   6   8
BRANCH   5  20
HETATM   20  S           1     172.081 185.645 278.142  0.00  0.00    -0.107 SA
BRANCH  20  21
HETATM   21  C           1     172.763 186.605 276.761  0.00  0.00     0.119 C 
BRANCH  21  22
HETATM   22  C           1     174.192 186.218 276.540  0.00  0.00    -0.049 A 
HETATM   23  C           1     174.512 185.238 275.600  0.00  0.00     0.008 A 
HETATM   24  C           1     175.844 184.877 275.395  0.00  0.00     0.001 A 
HETATM   25  C           1     176.855 185.496 276.129  0.00  0.00     0.000 A 
HETATM   26  C           1     176.535 186.476 277.068  0.00  0.00     0.001 A 
HETATM   27  C           1     175.203 186.836 277.274  0.00  0.00     0.008 A 
ENDBRANCH  21  22
ENDBRANCH  20  21
ENDBRANCH   5  20
BRANCH   2  28
HETATM   28  C           1     171.366 190.351 281.592  0.00  0.00    -0.024 A 
HETATM   29  C           1     170.455 190.311 282.648  0.00  0.00     0.015 A 
HETATM   30  C           1     170.264 191.438 283.448  0.00  0.00     0.043 A 
HETATM   31  C           1     170.985 192.605 283.191  0.00  0.00     0.116 A 
HETATM   32  F           1     170.804 193.671 283.947  0.00  0.00    -0.206 F 
HETATM   33  C           1     171.895 192.645 282.135  0.00  0.00     0.043 A 
HETATM   34  C           1     172.085 191.518 281.336  0.00  0.00     0.015 A 
ENDBRANCH   2  28
TORSDOF 9
ENDMDL
MODEL 6
REMARK VINA RESULT:      -7.7      8.005     12.499
REMARK  9 active torsions:
REMARK  status: ('A' for Active; 'I' for Inactive)
REMARK    1  A    between atoms: C_2  and  C_18 
REMARK    2  A    between atoms: C_5  and  S_9 
REMARK    3  A    between atoms: C_6  and  C_8 
REMARK    4  A    between atoms: C_8  and  N_17 
REMARK    5  A    between atoms: S_9  and  C_10 
REMARK    6  A    between atoms: C_10  and  C_11 
REMARK    7  A    between atoms: N_17  and  C_19 
REMARK    8  A    between atoms: C_19  and  C_20 
REMARK    9  A    between atoms: C_20  and  N_21 
ROOT
HETATM    1  C           1     174.625 186.805 280.377  0.00  0.00     0.101 A 
HETATM    2  C           1     173.541 186.275 281.060  0.00  0.00    -0.010 A 
HETATM    3  N           1     174.629 187.050 279.048  0.00  0.00    -0.359 N 
ATOM      4  HN          1     175.445 187.442 278.578  1.00  0.00     0.166 HD
HETATM    5  C           1     173.497 186.751 278.375  0.00  0.00     0.077 A 
HETATM    6  C           1     172.364 186.219 278.968  0.00  0.00     0.004 A 
HETATM    7  C           1     172.390 185.977 280.338  0.00  0.00     0.025 A 
ENDROOT
BRANCH   6   8
HETATM    8  C           1     171.144 185.912 278.157  0.00  0.00     0.311 C 
BRANCH   8   9
HETATM    9  N           1     170.049 186.725 278.611  0.00  0.00     0.089 N 
HETATM   10  H           1     169.205 186.156 278.674  0.00  0.00     0.316 HD
BRANCH   9  11
HETATM   11  C           1     169.849 187.770 277.643  0.00  0.00     0.300 C 
BRANCH  11  12
HETATM   12  C           1     170.382 189.085 278.197  0.00  0.00     0.302 C 
BRANCH  12  13
HETATM   13  N           1     170.065 189.178 279.597  0.00  0.00     0.093 N 
HETATM   14  C           1     171.294 189.608 280.287  0.00  0.00     0.302 C 
HETATM   15  C           1     171.052 189.999 281.760  0.00  0.00     0.302 C 
HETATM   16  N           1     170.014 191.033 281.918  0.00  0.00     0.087 N 
HETATM   17  C           1     169.718 191.121 283.322  0.00  0.00     0.310 C 
HETATM   18  C           1     168.785 190.603 281.228  0.00  0.00     0.302 C 
HETATM   19  C           1     169.027 190.212 279.753  0.00  0.00     0.302 C 
ENDBRANCH  12  13
ENDBRANCH  11  12
ENDBRANCH   9  11
ENDBRANCH   8   9
ENDBRANCH   6   8
BRANCH   5  20
HETATM   20  S           1     173.459 187.066 276.587  0.00  0.00    -0.107 SA
BRANCH  20  21
HETATM   21  C           1     174.260 185.494 276.164  0.00  0.00     0.119 C 
BRANCH  21  22
HETATM   22  C           1     175.643 185.759 275.653  0.00  0.00    -0.049 A 
HETATM   23  C           1     176.733 185.672 276.518  0.00  0.00     0.008 A 
HETATM   24  C           1     178.022 185.920 276.042  0.00  0.00     0.001 A 
HETATM   25  C           1     178.217 186.253 274.703  0.00  0.00     0.000 A 
HETATM   26  C           1     177.127 186.341 273.839  0.00  0.00     0.001 A 
HETATM   27  C           1     175.838 186.094 274.314  0.00  0.00     0.008 A 
ENDBRANCH  21  22
ENDBRANCH  20  21
ENDBRANCH   5  20
BRANCH   2  28
HETATM   28  C           1     173.601 186.055 282.377  0.00  0.00    -0.024 A 
HETATM   29  C           1     174.547 185.168 282.894  0.00  0.00     0.015 A 
HETATM   30  C           1     174.611 184.939 284.268  0.00  0.00     0.043 A 
HETATM   31  C           1     173.728 185.596 285.125  0.00  0.00     0.116 A 
HETATM   32  F           1     173.787 185.379 286.426  0.00  0.00    -0.206 F 
HETATM   33  C           1     172.782 186.481 284.610  0.00  0.00     0.043 A 
HETATM   34  C           1     172.719 186.711 283.235  0.00  0.00     0.015 A 
ENDBRANCH   2  28
TORSDOF 9
ENDMDL
MODEL 7
REMARK VINA RESULT:      -7.7      2.599      5.406
REMARK  9 active torsions:
REMARK  status: ('A' for Active; 'I' for Inactive)
REMARK    1  A    between atoms: C_2  and  C_18 
REMARK    2  A    between atoms: C_5  and  S_9 
REMARK    3  A    between atoms: C_6  and  C_8 
REMARK    4  A    between atoms: C_8  and  N_17 
REMARK    5  A    between atoms: S_9  and  C_10 
REMARK    6  A    between atoms: C_10  and  C_11 
REMARK    7  A    between atoms: N_17  and  C_19 
REMARK    8  A    between atoms: C_19  and  C_20 
REMARK    9  A    between atoms: C_20  and  N_21 
ROOT
HETATM    1  C           1     176.079 185.303 271.313  0.00  0.00     0.101 A 
HETATM    2  C           1     175.370 185.321 272.504  0.00  0.00    -0.010 A 
HETATM    3  N           1     175.506 185.146 270.099  0.00  0.00    -0.359 N 
ATOM      4  HN          1     176.060 185.138 269.243  1.00  0.00     0.166 HD
HETATM    5  C           1     174.164 184.999 270.079  0.00  0.00     0.077 A 
HETATM    6  C           1     173.370 185.003 271.214  0.00  0.00     0.004 A 
HETATM    7  C           1     173.989 185.166 272.449  0.00  0.00     0.025 A 
ENDROOT
BRANCH   6   8
HETATM    8  C           1     171.886 184.835 271.115  0.00  0.00     0.311 C 
BRANCH   8   9
HETATM    9  N           1     171.233 185.940 271.762  0.00  0.00     0.089 N 
HETATM   10  H           1     170.265 185.692 271.964  0.00  0.00     0.316 HD
BRANCH   9  11
HETATM   11  C           1     171.262 187.057 270.856  0.00  0.00     0.300 C 
BRANCH  11  12
HETATM   12  C           1     171.568 188.332 271.631  0.00  0.00     0.302 C 
BRANCH  12  13
HETATM   13  N           1     172.592 189.075 270.946  0.00  0.00     0.093 N 
HETATM   14  C           1     172.269 190.503 271.111  0.00  0.00     0.302 C 
HETATM   15  C           1     173.409 191.435 270.650  0.00  0.00     0.302 C 
HETATM   16  N           1     174.693 191.144 271.311  0.00  0.00     0.087 N 
HETATM   17  C           1     175.702 191.902 270.622  0.00  0.00     0.310 C 
HETATM   18  C           1     175.016 189.716 271.146  0.00  0.00     0.302 C 
HETATM   19  C           1     173.876 188.782 271.607  0.00  0.00     0.302 C 
ENDBRANCH  12  13
ENDBRANCH  11  12
ENDBRANCH   9  11
ENDBRANCH   8   9
ENDBRANCH   6   8
BRANCH   5  20
HETATM   20  S           1     173.353 184.785 268.469  0.00  0.00    -0.107 SA
BRANCH  20  21
HETATM   21  C           1     174.472 185.927 267.610  0.00  0.00     0.119 C 
BRANCH  21  22
HETATM   22  C           1     173.821 187.270 267.489  0.00  0.00    -0.049 A 
HETATM   23  C           1     172.484 187.364 267.103  0.00  0.00     0.008 A 
HETATM   24  C           1     171.877 188.615 266.990  0.00  0.00     0.001 A 
HETATM   25  C           1     172.608 189.771 267.262  0.00  0.00     0.000 A 
HETATM   26  C           1     173.945 189.677 267.647  0.00  0.00     0.001 A 
HETATM   27  C           1     174.552 188.425 267.760  0.00  0.00     0.008 A 
ENDBRANCH  21  22
ENDBRANCH  20  21
ENDBRANCH   5  20
BRANCH   2  28
HETATM   28  C           1     175.997 185.480 273.674  0.00  0.00    -0.024 A 
HETATM   29  C           1     177.195 186.192 273.732  0.00  0.00     0.015 A 
HETATM   30  C           1     177.849 186.360 274.952  0.00  0.00     0.043 A 
HETATM   31  C           1     177.305 185.813 276.115  0.00  0.00     0.116 A 
HETATM   32  F           1     177.924 185.969 277.270  0.00  0.00    -0.206 F 
HETATM   33  C           1     176.108 185.099 276.057  0.00  0.00     0.043 A 
HETATM   34  C           1     175.454 184.933 274.836  0.00  0.00     0.015 A 
ENDBRANCH   2  28
TORSDOF 9
ENDMDL
MODEL 8
REMARK VINA RESULT:      -7.3      2.769      6.784
REMARK  9 active torsions:
REMARK  status: ('A' for Active; 'I' for Inactive)
REMARK    1  A    between atoms: C_2  and  C_18 
REMARK    2  A    between atoms: C_5  and  S_9 
REMARK    3  A    between atoms: C_6  and  C_8 
REMARK    4  A    between atoms: C_8  and  N_17 
REMARK    5  A    between atoms: S_9  and  C_10 
REMARK    6  A    between atoms: C_10  and  C_11 
REMARK    7  A    between atoms: N_17  and  C_19 
REMARK    8  A    between atoms: C_19  and  C_20 
REMARK    9  A    between atoms: C_20  and  N_21 
ROOT
HETATM    1  C           1     176.152 184.477 271.473  0.00  0.00     0.101 A 
HETATM    2  C           1     175.905 185.629 272.203  0.00  0.00    -0.010 A 
HETATM    3  N           1     175.844 184.335 270.165  0.00  0.00    -0.359 N 
ATOM      4  HN          1     176.041 183.472 269.659  1.00  0.00     0.166 HD
HETATM    5  C           1     175.262 185.395 269.562  0.00  0.00     0.077 A 
HETATM    6  C           1     174.975 186.587 270.207  0.00  0.00     0.004 A 
HETATM    7  C           1     175.304 186.703 271.554  0.00  0.00     0.025 A 
ENDROOT
BRANCH   6   8
HETATM    8  C           1     174.328 187.721 269.474  0.00  0.00     0.311 C 
BRANCH   8   9
HETATM    9  N           1     175.338 188.639 269.023  0.00  0.00     0.089 N 
HETATM   10  H           1     176.261 188.256 269.227  0.00  0.00     0.316 HD
BRANCH   9  11
HETATM   11  C           1     175.162 189.872 269.742  0.00  0.00     0.300 C 
BRANCH  11  12
HETATM   12  C           1     173.824 190.493 269.366  0.00  0.00     0.302 C 
BRANCH  12  13
HETATM   13  N           1     173.400 191.388 270.410  0.00  0.00     0.093 N 
HETATM   14  C           1     172.781 190.559 271.459  0.00  0.00     0.302 C 
HETATM   15  C           1     172.504 191.343 272.760  0.00  0.00     0.302 C 
HETATM   16  N           1     173.705 192.002 273.301  0.00  0.00     0.087 N 
HETATM   17  C           1     173.265 192.882 274.349  0.00  0.00     0.310 C 
HETATM   18  C           1     174.324 192.831 272.252  0.00  0.00     0.302 C 
HETATM   19  C           1     174.602 192.047 270.950  0.00  0.00     0.302 C 
ENDBRANCH  12  13
ENDBRANCH  11  12
ENDBRANCH   9  11
ENDBRANCH   8   9
ENDBRANCH   6   8
BRANCH   5  20
HETATM   20  S           1     174.832 185.248 267.805  0.00  0.00    -0.107 SA
BRANCH  20  21
HETATM   21  C           1     176.119 184.016 267.461  0.00  0.00     0.119 C 
BRANCH  21  22
HETATM   22  C           1     176.359 183.941 265.985  0.00  0.00    -0.049 A 
HETATM   23  C           1     175.663 184.787 265.122  0.00  0.00     0.008 A 
HETATM   24  C           1     175.886 184.717 263.747  0.00  0.00     0.001 A 
HETATM   25  C           1     176.804 183.800 263.236  0.00  0.00     0.000 A 
HETATM   26  C           1     177.499 182.954 264.099  0.00  0.00     0.001 A 
HETATM   27  C           1     177.276 183.024 265.474  0.00  0.00     0.008 A 
ENDBRANCH  21  22
ENDBRANCH  20  21
ENDBRANCH   5  20
BRANCH   2  28
HETATM   28  C           1     176.234 185.706 273.496  0.00  0.00    -0.024 A 
HETATM   29  C           1     177.411 186.349 273.880  0.00  0.00     0.015 A 
HETATM   30  C           1     177.753 186.430 275.229  0.00  0.00     0.043 A 
HETATM   31  C           1     176.919 185.867 276.195  0.00  0.00     0.116 A 
HETATM   32  F           1     177.243 185.942 277.472  0.00  0.00    -0.206 F 
HETATM   33  C           1     175.743 185.223 275.812  0.00  0.00     0.043 A 
HETATM   34  C           1     175.400 185.143 274.462  0.00  0.00     0.015 A 
ENDBRANCH   2  28
TORSDOF 9
ENDMDL
MODEL 9
REMARK VINA RESULT:      -7.2      1.628      2.098
REMARK  9 active torsions:
REMARK  status: ('A' for Active; 'I' for Inactive)
REMARK    1  A    between atoms: C_2  and  C_18 
REMARK    2  A    between atoms: C_5  and  S_9 
REMARK    3  A    between atoms: C_6  and  C_8 
REMARK    4  A    between atoms: C_8  and  N_17 
REMARK    5  A    between atoms: S_9  and  C_10 
REMARK    6  A    between atoms: C_10  and  C_11 
REMARK    7  A    between atoms: N_17  and  C_19 
REMARK    8  A    between atoms: C_19  and  C_20 
REMARK    9  A    between atoms: C_20  and  N_21 
ROOT
HETATM    1  C           1     173.729 186.045 273.398  0.00  0.00     0.101 A 
HETATM    2  C           1     175.028 185.613 273.182  0.00  0.00    -0.010 A 
HETATM    3  N           1     172.775 186.067 272.441  0.00  0.00    -0.359 N 
ATOM      4  HN          1     171.828 186.392 272.636  1.00  0.00     0.166 HD
HETATM    5  C           1     173.140 185.638 271.213  0.00  0.00     0.077 A 
HETATM    6  C           1     174.413 185.189 270.900  0.00  0.00     0.004 A 
HETATM    7  C           1     175.373 185.178 271.907  0.00  0.00     0.025 A 
ENDROOT
BRANCH   6   8
HETATM    8  C           1     174.746 184.727 269.516  0.00  0.00     0.311 C 
BRANCH   8   9
HETATM    9  N           1     175.649 185.662 268.902  0.00  0.00     0.089 N 
HETATM   10  H           1     175.258 186.602 268.962  0.00  0.00     0.316 HD
BRANCH   9  11
HETATM   11  C           1     175.791 185.291 267.519  0.00  0.00     0.300 C 
BRANCH  11  12
HETATM   12  C           1     176.948 184.311 267.373  0.00  0.00     0.302 C 
BRANCH  12  13
HETATM   13  N           1     177.130 183.991 265.982  0.00  0.00     0.093 N 
HETATM   14  C           1     177.065 182.523 265.868  0.00  0.00     0.302 C 
HETATM   15  C           1     176.990 182.035 264.406  0.00  0.00     0.302 C 
HETATM   16  N           1     175.872 182.634 263.657  0.00  0.00     0.087 N 
HETATM   17  C           1     176.065 182.294 262.273  0.00  0.00     0.310 C 
HETATM   18  C           1     175.938 184.102 263.770  0.00  0.00     0.302 C 
HETATM   19  C           1     176.013 184.591 265.233  0.00  0.00     0.302 C 
ENDBRANCH  12  13
ENDBRANCH  11  12
ENDBRANCH   9  11
ENDBRANCH   8   9
ENDBRANCH   6   8
BRANCH   5  20
HETATM   20  S           1     171.890 185.651 269.898  0.00  0.00    -0.107 SA
BRANCH  20  21
HETATM   21  C           1     171.643 187.447 269.974  0.00  0.00     0.119 C 
BRANCH  21  22
HETATM   22  C           1     172.832 188.140 269.385  0.00  0.00    -0.049 A 
HETATM   23  C           1     173.673 188.896 270.201  0.00  0.00     0.008 A 
HETATM   24  C           1     174.780 189.544 269.653  0.00  0.00     0.001 A 
HETATM   25  C           1     175.047 189.433 268.289  0.00  0.00     0.000 A 
HETATM   26  C           1     174.206 188.677 267.473  0.00  0.00     0.001 A 
HETATM   27  C           1     173.098 188.031 268.021  0.00  0.00     0.008 A 
ENDBRANCH  21  22
ENDBRANCH  20  21
ENDBRANCH   5  20
BRANCH   2  28
HETATM   28  C           1     175.926 185.616 274.172  0.00  0.00    -0.024 A 
HETATM   29  C           1     175.633 184.986 275.382  0.00  0.00     0.015 A 
HETATM   30  C           1     176.570 184.988 276.414  0.00  0.00     0.043 A 
HETATM   31  C           1     177.800 185.622 276.238  0.00  0.00     0.116 A 
HETATM   32  F           1     178.687 185.626 277.216  0.00  0.00    -0.206 F 
HETATM   33  C           1     178.094 186.253 275.030  0.00  0.00     0.043 A 
HETATM   34  C           1     177.156 186.250 273.996  0.00  0.00     0.015 A 
ENDBRANCH   2  28
TORSDOF 9
ENDMDL
