MODEL 1
REMARK VINA RESULT:      -8.3      0.000      0.000
REMARK  9 active torsions:
REMARK  status: ('A' for Active; 'I' for Inactive)
REMARK    1  A    between atoms: C_2  and  C_17 
REMARK    2  A    between atoms: C_4  and  S_8 
REMARK    3  A    between atoms: C_5  and  C_7 
REMARK    4  A    between atoms: C_7  and  N_16 
REMARK    5  A    between atoms: S_8  and  C_9 
REMARK    6  A    between atoms: C_9  and  C_10 
REMARK    7  A    between atoms: N_16  and  C_18 
REMARK    8  A    between atoms: C_18  and  C_19 
REMARK    9  A    between atoms: C_19  and  N_20 
ROOT
HETATM    1  C           1     176.125 185.626 273.379  0.00  0.00    -0.024 A 
HETATM    2  C           1     175.499 185.069 274.495  0.00  0.00     0.014 A 
HETATM    3  C           1     176.093 185.171 275.752  0.00  0.00     0.023 A 
HETATM    4  C           1     177.315 185.829 275.894  0.00  0.00     0.044 A 
HETATM    5  C           1     177.942 186.384 274.778  0.00  0.00     0.023 A 
HETATM    6  C           1     177.347 186.283 273.521  0.00  0.00     0.014 A 
HETATM    7  C           1     177.876 185.924 277.078  0.00  0.00     0.099 C 
HETATM    8  N           1     178.371 186.009 278.121  0.00  0.00    -0.191 NA
ENDROOT
BRANCH   1   9
HETATM    9  C           1     175.554 185.527 272.174  0.00  0.00    -0.008 A 
HETATM   10  C           1     174.421 186.261 271.862  0.00  0.00     0.130 A 
HETATM   11  N           1     173.797 186.207 270.665  0.00  0.00    -0.253 NA
HETATM   12  C           1     174.334 185.381 269.740  0.00  0.00     0.101 A 
HETATM   13  C           1     175.464 184.609 269.958  0.00  0.00     0.006 A 
HETATM   14  C           1     176.083 184.686 271.200  0.00  0.00     0.025 A 
BRANCH  12  15
HETATM   15  S           1     173.528 185.279 268.116  0.00  0.00    -0.105 SA
BRANCH  15  16
HETATM   16  C           1     174.564 186.575 267.379  0.00  0.00     0.119 C 
BRANCH  16  17
HETATM   17  C           1     173.828 187.878 267.406  0.00  0.00    -0.049 A 
HETATM   18  C           1     172.542 187.964 266.873  0.00  0.00     0.008 A 
HETATM   19  C           1     171.858 189.180 266.898  0.00  0.00     0.001 A 
HETATM   20  C           1     172.459 190.308 267.456  0.00  0.00     0.000 A 
HETATM   21  C           1     173.745 190.222 267.988  0.00  0.00     0.001 A 
HETATM   22  C           1     174.430 189.007 267.964  0.00  0.00     0.008 A 
ENDBRANCH  16  17
ENDBRANCH  15  16
ENDBRANCH  12  15
BRANCH  13  23
HETATM   23  C           1     176.004 183.717 268.884  0.00  0.00     0.311 C 
BRANCH  23  24
HETATM   24  N           1     177.219 184.277 268.359  0.00  0.00     0.089 N 
HETATM   25  H           1     177.231 185.283 268.532  0.00  0.00     0.316 HD
BRANCH  24  26
HETATM   26  C           1     177.238 184.033 266.943  0.00  0.00     0.300 C 
BRANCH  26  27
HETATM   27  C           1     176.285 182.892 266.610  0.00  0.00     0.302 C 
BRANCH  27  28
HETATM   28  N           1     175.787 183.058 265.272  0.00  0.00     0.093 N 
HETATM   29  C           1     174.317 182.982 265.348  0.00  0.00     0.302 C 
HETATM   30  C           1     173.622 183.396 264.033  0.00  0.00     0.302 C 
HETATM   31  N           1     174.020 184.737 263.570  0.00  0.00     0.087 N 
HETATM   32  C           1     173.505 184.890 262.236  0.00  0.00     0.310 C 
HETATM   33  C           1     175.490 184.813 263.493  0.00  0.00     0.302 C 
HETATM   34  C           1     176.185 184.400 264.808  0.00  0.00     0.302 C 
ENDBRANCH  27  28
ENDBRANCH  26  27
ENDBRANCH  24  26
ENDBRANCH  23  24
ENDBRANCH  13  23
ENDBRANCH   1   9
TORSDOF 9
ENDMDL
MODEL 2
REMARK VINA RESULT:      -8.2      1.337      2.160
REMARK  9 active torsions:
REMARK  status: ('A' for Active; 'I' for Inactive)
REMARK    1  A    between atoms: C_2  and  C_17 
REMARK    2  A    between atoms: C_4  and  S_8 
REMARK    3  A    between atoms: C_5  and  C_7 
REMARK    4  A    between atoms: C_7  and  N_16 
REMARK    5  A    between atoms: S_8  and  C_9 
REMARK    6  A    between atoms: C_9  and  C_10 
REMARK    7  A    between atoms: N_16  and  C_18 
REMARK    8  A    between atoms: C_18  and  C_19 
REMARK    9  A    between atoms: C_19  and  N_20 
ROOT
HETATM    1  C           1     176.129 185.613 273.364  0.00  0.00    -0.024 A 
HETATM    2  C           1     177.331 186.305 273.522  0.00  0.00     0.014 A 
HETATM    3  C           1     177.909 186.418 274.786  0.00  0.00     0.023 A 
HETATM    4  C           1     177.286 185.841 275.892  0.00  0.00     0.044 A 
HETATM    5  C           1     176.085 185.150 275.734  0.00  0.00     0.023 A 
HETATM    6  C           1     175.507 185.036 274.470  0.00  0.00     0.014 A 
HETATM    7  C           1     177.831 185.948 277.082  0.00  0.00     0.099 C 
HETATM    8  N           1     178.310 186.042 278.132  0.00  0.00    -0.191 NA
ENDROOT
BRANCH   1   9
HETATM    9  C           1     175.576 185.505 272.152  0.00  0.00    -0.008 A 
HETATM   10  C           1     174.425 186.207 271.830  0.00  0.00     0.130 A 
HETATM   11  N           1     173.817 186.141 270.625  0.00  0.00    -0.253 NA
HETATM   12  C           1     174.388 185.337 269.703  0.00  0.00     0.101 A 
HETATM   13  C           1     175.538 184.597 269.930  0.00  0.00     0.006 A 
HETATM   14  C           1     176.140 184.685 271.181  0.00  0.00     0.025 A 
BRANCH  12  15
HETATM   15  S           1     173.606 185.220 268.069  0.00  0.00    -0.105 SA
BRANCH  15  16
HETATM   16  C           1     174.620 186.540 267.347  0.00  0.00     0.119 C 
BRANCH  16  17
HETATM   17  C           1     173.861 187.830 267.383  0.00  0.00    -0.049 A 
HETATM   18  C           1     174.447 188.969 267.935  0.00  0.00     0.008 A 
HETATM   19  C           1     173.738 190.171 267.968  0.00  0.00     0.001 A 
HETATM   20  C           1     172.446 190.232 267.450  0.00  0.00     0.000 A 
HETATM   21  C           1     171.860 189.094 266.897  0.00  0.00     0.001 A 
HETATM   22  C           1     172.568 187.892 266.863  0.00  0.00     0.008 A 
ENDBRANCH  16  17
ENDBRANCH  15  16
ENDBRANCH  12  15
BRANCH  13  23
HETATM   23  C           1     176.116 183.726 268.858  0.00  0.00     0.311 C 
BRANCH  23  24
HETATM   24  N           1     177.290 184.351 268.313  0.00  0.00     0.089 N 
HETATM   25  H           1     177.222 185.361 268.430  0.00  0.00     0.316 HD
BRANCH  24  26
HETATM   26  C           1     177.344 184.032 266.912  0.00  0.00     0.300 C 
BRANCH  26  27
HETATM   27  C           1     176.388 182.884 266.613  0.00  0.00     0.302 C 
BRANCH  27  28
HETATM   28  N           1     176.520 182.497 265.235  0.00  0.00     0.093 N 
HETATM   29  C           1     176.754 183.730 264.463  0.00  0.00     0.302 C 
HETATM   30  C           1     177.170 183.457 263.002  0.00  0.00     0.302 C 
HETATM   31  N           1     178.350 182.579 262.894  0.00  0.00     0.087 N 
HETATM   32  C           1     178.474 182.212 261.509  0.00  0.00     0.310 C 
HETATM   33  C           1     178.116 181.346 263.666  0.00  0.00     0.302 C 
HETATM   34  C           1     177.700 181.619 265.127  0.00  0.00     0.302 C 
ENDBRANCH  27  28
ENDBRANCH  26  27
ENDBRANCH  24  26
ENDBRANCH  23  24
ENDBRANCH  13  23
ENDBRANCH   1   9
TORSDOF 9
ENDMDL
MODEL 3
REMARK VINA RESULT:      -8.1      2.932      6.438
REMARK  9 active torsions:
REMARK  status: ('A' for Active; 'I' for Inactive)
REMARK    1  A    between atoms: C_2  and  C_17 
REMARK    2  A    between atoms: C_4  and  S_8 
REMARK    3  A    between atoms: C_5  and  C_7 
REMARK    4  A    between atoms: C_7  and  N_16 
REMARK    5  A    between atoms: S_8  and  C_9 
REMARK    6  A    between atoms: C_9  and  C_10 
REMARK    7  A    between atoms: N_16  and  C_18 
REMARK    8  A    between atoms: C_18  and  C_19 
REMARK    9  A    between atoms: C_19  and  N_20 
ROOT
HETATM    1  C           1     176.011 185.618 273.545  0.00  0.00    -0.024 A 
HETATM    2  C           1     175.475 185.027 274.690  0.00  0.00     0.014 A 
HETATM    3  C           1     176.174 185.082 275.895  0.00  0.00     0.023 A 
HETATM    4  C           1     177.409 185.727 275.957  0.00  0.00     0.044 A 
HETATM    5  C           1     177.945 186.317 274.812  0.00  0.00     0.023 A 
HETATM    6  C           1     177.247 186.263 273.607  0.00  0.00     0.014 A 
HETATM    7  C           1     178.067 185.778 277.092  0.00  0.00     0.099 C 
HETATM    8  N           1     178.647 185.824 278.093  0.00  0.00    -0.191 NA
ENDROOT
BRANCH   1   9
HETATM    9  C           1     175.341 185.565 272.390  0.00  0.00    -0.008 A 
HETATM   10  C           1     175.749 184.722 271.367  0.00  0.00     0.130 A 
HETATM   11  N           1     175.117 184.622 270.178  0.00  0.00    -0.253 NA
HETATM   12  C           1     174.027 185.400 270.006  0.00  0.00     0.101 A 
HETATM   13  C           1     173.541 186.272 270.967  0.00  0.00     0.006 A 
HETATM   14  C           1     174.214 186.354 272.181  0.00  0.00     0.025 A 
BRANCH  12  15
HETATM   15  S           1     173.144 185.297 268.422  0.00  0.00    -0.105 SA
BRANCH  15  16
HETATM   16  C           1     174.352 186.323 267.537  0.00  0.00     0.119 C 
BRANCH  16  17
HETATM   17  C           1     173.891 187.748 267.536  0.00  0.00    -0.049 A 
HETATM   18  C           1     174.743 188.756 267.986  0.00  0.00     0.008 A 
HETATM   19  C           1     174.313 190.084 267.986  0.00  0.00     0.001 A 
HETATM   20  C           1     173.032 190.401 267.535  0.00  0.00     0.000 A 
HETATM   21  C           1     172.180 189.393 267.085  0.00  0.00     0.001 A 
HETATM   22  C           1     172.610 188.066 267.085  0.00  0.00     0.008 A 
ENDBRANCH  16  17
ENDBRANCH  15  16
ENDBRANCH  12  15
BRANCH  13  23
HETATM   23  C           1     172.324 187.105 270.706  0.00  0.00     0.311 C 
BRANCH  23  24
HETATM   24  N           1     172.625 188.487 270.956  0.00  0.00     0.089 N 
HETATM   25  H           1     173.128 188.571 271.840  0.00  0.00     0.316 HD
BRANCH  24  26
HETATM   26  C           1     171.379 189.198 271.044  0.00  0.00     0.300 C 
BRANCH  26  27
HETATM   27  C           1     171.624 190.686 270.826  0.00  0.00     0.302 C 
BRANCH  27  28
HETATM   28  N           1     172.723 191.115 271.648  0.00  0.00     0.093 N 
HETATM   29  C           1     173.432 192.170 270.901  0.00  0.00     0.302 C 
HETATM   30  C           1     174.483 192.911 271.754  0.00  0.00     0.302 C 
HETATM   31  N           1     173.921 193.481 272.991  0.00  0.00     0.087 N 
HETATM   32  C           1     175.032 193.916 273.794  0.00  0.00     0.310 C 
HETATM   33  C           1     173.213 192.427 273.739  0.00  0.00     0.302 C 
HETATM   34  C           1     172.161 191.685 272.886  0.00  0.00     0.302 C 
ENDBRANCH  27  28
ENDBRANCH  26  27
ENDBRANCH  24  26
ENDBRANCH  23  24
ENDBRANCH  13  23
ENDBRANCH   1   9
TORSDOF 9
ENDMDL
MODEL 4
REMARK VINA RESULT:      -8.0      2.527      6.238
REMARK  9 active torsions:
REMARK  status: ('A' for Active; 'I' for Inactive)
REMARK    1  A    between atoms: C_2  and  C_17 
REMARK    2  A    between atoms: C_4  and  S_8 
REMARK    3  A    between atoms: C_5  and  C_7 
REMARK    4  A    between atoms: C_7  and  N_16 
REMARK    5  A    between atoms: S_8  and  C_9 
REMARK    6  A    between atoms: C_9  and  C_10 
REMARK    7  A    between atoms: N_16  and  C_18 
REMARK    8  A    between atoms: C_18  and  C_19 
REMARK    9  A    between atoms: C_19  and  N_20 
ROOT
HETATM    1  C           1     176.050 185.599 273.401  0.00  0.00    -0.024 A 
HETATM    2  C           1     175.473 184.997 274.520  0.00  0.00     0.014 A 
HETATM    3  C           1     176.098 185.091 275.763  0.00  0.00     0.023 A 
HETATM    4  C           1     177.300 185.786 275.888  0.00  0.00     0.044 A 
HETATM    5  C           1     177.878 186.388 274.770  0.00  0.00     0.023 A 
HETATM    6  C           1     177.253 186.295 273.527  0.00  0.00     0.014 A 
HETATM    7  C           1     177.889 185.874 277.059  0.00  0.00     0.099 C 
HETATM    8  N           1     178.408 185.952 278.091  0.00  0.00    -0.191 NA
ENDROOT
BRANCH   1   9
HETATM    9  C           1     175.451 185.509 272.210  0.00  0.00    -0.008 A 
HETATM   10  C           1     176.075 184.881 271.144  0.00  0.00     0.130 A 
HETATM   11  N           1     175.524 184.756 269.917  0.00  0.00    -0.253 NA
HETATM   12  C           1     174.292 185.284 269.751  0.00  0.00     0.101 A 
HETATM   13  C           1     173.588 185.930 270.755  0.00  0.00     0.006 A 
HETATM   14  C           1     174.182 186.043 272.008  0.00  0.00     0.025 A 
BRANCH  12  15
HETATM   15  S           1     173.512 185.138 268.118  0.00  0.00    -0.105 SA
BRANCH  15  16
HETATM   16  C           1     174.617 186.352 267.342  0.00  0.00     0.119 C 
BRANCH  16  17
HETATM   17  C           1     173.997 187.713 267.417  0.00  0.00    -0.049 A 
HETATM   18  C           1     172.701 187.915 266.944  0.00  0.00     0.008 A 
HETATM   19  C           1     172.124 189.184 267.014  0.00  0.00     0.001 A 
HETATM   20  C           1     172.843 190.248 267.557  0.00  0.00     0.000 A 
HETATM   21  C           1     174.139 190.046 268.030  0.00  0.00     0.001 A 
HETATM   22  C           1     174.717 188.777 267.960  0.00  0.00     0.008 A 
ENDBRANCH  16  17
ENDBRANCH  15  16
ENDBRANCH  12  15
BRANCH  13  23
HETATM   23  C           1     172.223 186.490 270.499  0.00  0.00     0.311 C 
BRANCH  23  24
HETATM   24  N           1     172.275 187.925 270.558  0.00  0.00     0.089 N 
HETATM   25  H           1     173.224 188.222 270.787  0.00  0.00     0.316 HD
BRANCH  24  26
HETATM   26  C           1     171.375 188.353 271.595  0.00  0.00     0.300 C 
BRANCH  26  27
HETATM   27  C           1     172.060 189.402 272.462  0.00  0.00     0.302 C 
BRANCH  27  28
HETATM   28  N           1     172.017 188.989 273.838  0.00  0.00     0.093 N 
HETATM   29  C           1     171.093 187.843 273.914  0.00  0.00     0.302 C 
HETATM   30  C           1     171.133 187.124 275.279  0.00  0.00     0.302 C 
HETATM   31  N           1     172.488 186.686 275.658  0.00  0.00     0.087 N 
HETATM   32  C           1     172.424 186.265 277.032  0.00  0.00     0.310 C 
HETATM   33  C           1     173.413 187.831 275.582  0.00  0.00     0.302 C 
HETATM   34  C           1     173.372 188.550 274.217  0.00  0.00     0.302 C 
ENDBRANCH  27  28
ENDBRANCH  26  27
ENDBRANCH  24  26
ENDBRANCH  23  24
ENDBRANCH  13  23
ENDBRANCH   1   9
TORSDOF 9
ENDMDL
MODEL 5
REMARK VINA RESULT:      -7.8      8.606     14.382
REMARK  9 active torsions:
REMARK  status: ('A' for Active; 'I' for Inactive)
REMARK    1  A    between atoms: C_2  and  C_17 
REMARK    2  A    between atoms: C_4  and  S_8 
REMARK    3  A    between atoms: C_5  and  C_7 
REMARK    4  A    between atoms: C_7  and  N_16 
REMARK    5  A    between atoms: S_8  and  C_9 
REMARK    6  A    between atoms: C_9  and  C_10 
REMARK    7  A    between atoms: N_16  and  C_18 
REMARK    8  A    between atoms: C_18  and  C_19 
REMARK    9  A    between atoms: C_19  and  N_20 
ROOT
HETATM    1  C           1     171.181 190.398 281.713  0.00  0.00    -0.024 A 
HETATM    2  C           1     170.219 190.302 282.719  0.00  0.00     0.014 A 
HETATM    3  C           1     169.970 191.392 283.552  0.00  0.00     0.023 A 
HETATM    4  C           1     170.684 192.579 283.381  0.00  0.00     0.044 A 
HETATM    5  C           1     171.646 192.674 282.375  0.00  0.00     0.023 A 
HETATM    6  C           1     171.894 191.585 281.541  0.00  0.00     0.014 A 
HETATM    7  C           1     170.450 193.605 284.166  0.00  0.00     0.099 C 
HETATM    8  N           1     170.244 194.510 284.858  0.00  0.00    -0.191 NA
ENDROOT
BRANCH   1   9
HETATM    9  C           1     171.419 189.353 280.914  0.00  0.00    -0.008 A 
HETATM   10  C           1     170.708 189.180 279.737  0.00  0.00     0.130 A 
HETATM   11  N           1     170.900 188.147 278.889  0.00  0.00    -0.253 NA
HETATM   12  C           1     171.848 187.248 279.234  0.00  0.00     0.101 A 
HETATM   13  C           1     172.610 187.336 280.388  0.00  0.00     0.006 A 
HETATM   14  C           1     172.388 188.410 281.243  0.00  0.00     0.025 A 
BRANCH  12  15
HETATM   15  S           1     172.140 185.844 278.121  0.00  0.00    -0.105 SA
BRANCH  15  16
HETATM   16  C           1     172.925 186.861 276.839  0.00  0.00     0.119 C 
BRANCH  16  17
HETATM   17  C           1     174.297 186.333 276.552  0.00  0.00    -0.049 A 
HETATM   18  C           1     174.472 185.327 275.602  0.00  0.00     0.008 A 
HETATM   19  C           1     175.751 184.836 275.336  0.00  0.00     0.001 A 
HETATM   20  C           1     176.852 185.350 276.020  0.00  0.00     0.000 A 
HETATM   21  C           1     176.676 186.356 276.969  0.00  0.00     0.001 A 
HETATM   22  C           1     175.398 186.849 277.236  0.00  0.00     0.008 A 
ENDBRANCH  16  17
ENDBRANCH  15  16
ENDBRANCH  12  15
BRANCH  13  23
HETATM   23  C           1     173.645 186.301 280.707  0.00  0.00     0.311 C 
BRANCH  23  24
HETATM   24  N           1     173.075 185.303 281.570  0.00  0.00     0.089 N 
HETATM   25  H           1     172.314 185.714 282.109  0.00  0.00     0.316 HD
BRANCH  24  26
HETATM   26  C           1     174.109 184.855 282.463  0.00  0.00     0.300 C 
BRANCH  26  27
HETATM   27  C           1     174.909 186.054 282.957  0.00  0.00     0.302 C 
BRANCH  27  28
HETATM   28  N           1     174.817 186.133 284.390  0.00  0.00     0.093 N 
HETATM   29  C           1     173.546 186.811 284.702  0.00  0.00     0.302 C 
HETATM   30  C           1     173.180 186.745 286.200  0.00  0.00     0.302 C 
HETATM   31  N           1     173.142 185.368 286.724  0.00  0.00     0.087 N 
HETATM   32  C           1     173.038 185.466 288.155  0.00  0.00     0.310 C 
HETATM   33  C           1     174.413 184.690 286.411  0.00  0.00     0.302 C 
HETATM   34  C           1     174.779 184.755 284.913  0.00  0.00     0.302 C 
ENDBRANCH  27  28
ENDBRANCH  26  27
ENDBRANCH  24  26
ENDBRANCH  23  24
ENDBRANCH  13  23
ENDBRANCH   1   9
TORSDOF 9
ENDMDL
MODEL 6
REMARK VINA RESULT:      -7.7      7.693     12.091
REMARK  9 active torsions:
REMARK  status: ('A' for Active; 'I' for Inactive)
REMARK    1  A    between atoms: C_2  and  C_17 
REMARK    2  A    between atoms: C_4  and  S_8 
REMARK    3  A    between atoms: C_5  and  C_7 
REMARK    4  A    between atoms: C_7  and  N_16 
REMARK    5  A    between atoms: S_8  and  C_9 
REMARK    6  A    between atoms: C_9  and  C_10 
REMARK    7  A    between atoms: N_16  and  C_18 
REMARK    8  A    between atoms: C_18  and  C_19 
REMARK    9  A    between atoms: C_19  and  N_20 
ROOT
HETATM    1  C           1     173.579 185.970 282.292  0.00  0.00    -0.024 A 
HETATM    2  C           1     174.595 185.172 282.819  0.00  0.00     0.014 A 
HETATM    3  C           1     174.645 184.923 284.190  0.00  0.00     0.023 A 
HETATM    4  C           1     173.681 185.472 285.035  0.00  0.00     0.044 A 
HETATM    5  C           1     172.666 186.270 284.507  0.00  0.00     0.023 A 
HETATM    6  C           1     172.614 186.519 283.136  0.00  0.00     0.014 A 
HETATM    7  C           1     173.728 185.238 286.326  0.00  0.00     0.099 C 
HETATM    8  N           1     173.770 185.032 287.465  0.00  0.00    -0.191 NA
ENDROOT
BRANCH   1   9
HETATM    9  C           1     173.532 186.208 280.977  0.00  0.00    -0.008 A 
HETATM   10  C           1     174.607 186.782 280.318  0.00  0.00     0.130 A 
HETATM   11  N           1     174.622 187.048 278.994  0.00  0.00    -0.253 NA
HETATM   12  C           1     173.510 186.723 278.299  0.00  0.00     0.101 A 
HETATM   13  C           1     172.386 186.146 278.868  0.00  0.00     0.006 A 
HETATM   14  C           1     172.400 185.884 280.234  0.00  0.00     0.025 A 
BRANCH  12  15
HETATM   15  S           1     173.487 187.062 276.516  0.00  0.00    -0.105 SA
BRANCH  15  16
HETATM   16  C           1     174.294 185.495 276.079  0.00  0.00     0.119 C 
BRANCH  16  17
HETATM   17  C           1     175.685 185.766 275.597  0.00  0.00    -0.049 A 
HETATM   18  C           1     175.902 186.152 274.275  0.00  0.00     0.008 A 
HETATM   19  C           1     177.199 186.403 273.826  0.00  0.00     0.001 A 
HETATM   20  C           1     178.277 186.269 274.700  0.00  0.00     0.000 A 
HETATM   21  C           1     178.061 185.883 276.022  0.00  0.00     0.001 A 
HETATM   22  C           1     176.764 185.632 276.472  0.00  0.00     0.008 A 
ENDBRANCH  16  17
ENDBRANCH  15  16
ENDBRANCH  12  15
BRANCH  13  23
HETATM   23  C           1     171.188 185.811 278.034  0.00  0.00     0.311 C 
BRANCH  23  24
HETATM   24  N           1     170.099 186.680 278.388  0.00  0.00     0.089 N 
HETATM   25  H           1     169.400 186.152 278.910  0.00  0.00     0.316 HD
BRANCH  24  26
HETATM   26  C           1     169.518 187.172 277.169  0.00  0.00     0.300 C 
BRANCH  26  27
HETATM   27  C           1     168.798 188.486 277.442  0.00  0.00     0.302 C 
BRANCH  27  28
HETATM   28  N           1     169.379 189.120 278.594  0.00  0.00     0.093 N 
HETATM   29  C           1     170.103 190.309 278.110  0.00  0.00     0.302 C 
HETATM   30  C           1     170.568 191.238 279.251  0.00  0.00     0.302 C 
HETATM   31  N           1     169.466 191.661 280.134  0.00  0.00     0.087 N 
HETATM   32  C           1     170.064 192.303 281.274  0.00  0.00     0.310 C 
HETATM   33  C           1     168.743 190.472 280.618  0.00  0.00     0.302 C 
HETATM   34  C           1     168.277 189.543 279.477  0.00  0.00     0.302 C 
ENDBRANCH  27  28
ENDBRANCH  26  27
ENDBRANCH  24  26
ENDBRANCH  23  24
ENDBRANCH  13  23
ENDBRANCH   1   9
TORSDOF 9
ENDMDL
MODEL 7
REMARK VINA RESULT:      -7.7      2.610      6.271
REMARK  9 active torsions:
REMARK  status: ('A' for Active; 'I' for Inactive)
REMARK    1  A    between atoms: C_2  and  C_17 
REMARK    2  A    between atoms: C_4  and  S_8 
REMARK    3  A    between atoms: C_5  and  C_7 
REMARK    4  A    between atoms: C_7  and  N_16 
REMARK    5  A    between atoms: S_8  and  C_9 
REMARK    6  A    between atoms: C_9  and  C_10 
REMARK    7  A    between atoms: N_16  and  C_18 
REMARK    8  A    between atoms: C_18  and  C_19 
REMARK    9  A    between atoms: C_19  and  N_20 
ROOT
HETATM    1  C           1     176.102 185.554 273.407  0.00  0.00    -0.024 A 
HETATM    2  C           1     177.303 186.252 273.545  0.00  0.00     0.014 A 
HETATM    3  C           1     177.891 186.385 274.802  0.00  0.00     0.023 A 
HETATM    4  C           1     177.280 185.821 275.922  0.00  0.00     0.044 A 
HETATM    5  C           1     176.079 185.124 275.783  0.00  0.00     0.023 A 
HETATM    6  C           1     175.491 184.990 274.526  0.00  0.00     0.014 A 
HETATM    7  C           1     177.834 185.946 277.106  0.00  0.00     0.099 C 
HETATM    8  N           1     178.322 186.056 278.150  0.00  0.00    -0.191 NA
ENDROOT
BRANCH   1   9
HETATM    9  C           1     175.539 185.428 272.202  0.00  0.00    -0.008 A 
HETATM   10  C           1     175.425 184.187 271.595  0.00  0.00     0.130 A 
HETATM   11  N           1     174.867 183.992 270.381  0.00  0.00    -0.253 NA
HETATM   12  C           1     174.402 185.089 269.746  0.00  0.00     0.101 A 
HETATM   13  C           1     174.469 186.371 270.270  0.00  0.00     0.006 A 
HETATM   14  C           1     175.050 186.540 271.522  0.00  0.00     0.025 A 
BRANCH  12  15
HETATM   15  S           1     173.642 184.873 268.111  0.00  0.00    -0.105 SA
BRANCH  15  16
HETATM   16  C           1     175.220 184.991 267.222  0.00  0.00     0.119 C 
BRANCH  16  17
HETATM   17  C           1     174.967 184.958 265.747  0.00  0.00    -0.049 A 
HETATM   18  C           1     173.690 185.223 265.253  0.00  0.00     0.008 A 
HETATM   19  C           1     173.454 185.192 263.878  0.00  0.00     0.001 A 
HETATM   20  C           1     174.495 184.895 262.998  0.00  0.00     0.000 A 
HETATM   21  C           1     175.772 184.630 263.492  0.00  0.00     0.001 A 
HETATM   22  C           1     176.008 184.661 264.867  0.00  0.00     0.008 A 
ENDBRANCH  16  17
ENDBRANCH  15  16
ENDBRANCH  12  15
BRANCH  13  23
HETATM   23  C           1     173.931 187.542 269.508  0.00  0.00     0.311 C 
BRANCH  23  24
HETATM   24  N           1     175.021 188.282 268.933  0.00  0.00     0.089 N 
HETATM   25  H           1     175.897 187.985 269.362  0.00  0.00     0.316 HD
BRANCH  24  26
HETATM   26  C           1     174.798 189.675 269.211  0.00  0.00     0.300 C 
BRANCH  26  27
HETATM   27  C           1     175.590 190.080 270.448  0.00  0.00     0.302 C 
BRANCH  27  28
HETATM   28  N           1     174.775 190.916 271.287  0.00  0.00     0.093 N 
HETATM   29  C           1     175.326 192.280 271.200  0.00  0.00     0.302 C 
HETATM   30  C           1     174.410 193.343 271.842  0.00  0.00     0.302 C 
HETATM   31  N           1     173.043 193.331 271.293  0.00  0.00     0.087 N 
HETATM   32  C           1     172.245 194.181 272.136  0.00  0.00     0.310 C 
HETATM   33  C           1     172.491 191.968 271.380  0.00  0.00     0.302 C 
HETATM   34  C           1     173.407 190.904 270.738  0.00  0.00     0.302 C 
ENDBRANCH  27  28
ENDBRANCH  26  27
ENDBRANCH  24  26
ENDBRANCH  23  24
ENDBRANCH  13  23
ENDBRANCH   1   9
TORSDOF 9
ENDMDL
MODEL 8
REMARK VINA RESULT:      -7.6      3.167      9.405
REMARK  9 active torsions:
REMARK  status: ('A' for Active; 'I' for Inactive)
REMARK    1  A    between atoms: C_2  and  C_17 
REMARK    2  A    between atoms: C_4  and  S_8 
REMARK    3  A    between atoms: C_5  and  C_7 
REMARK    4  A    between atoms: C_7  and  N_16 
REMARK    5  A    between atoms: S_8  and  C_9 
REMARK    6  A    between atoms: C_9  and  C_10 
REMARK    7  A    between atoms: N_16  and  C_18 
REMARK    8  A    between atoms: C_18  and  C_19 
REMARK    9  A    between atoms: C_19  and  N_20 
ROOT
HETATM    1  C           1     176.208 184.599 266.682  0.00  0.00    -0.024 A 
HETATM    2  C           1     177.172 183.592 266.652  0.00  0.00     0.014 A 
HETATM    3  C           1     177.563 183.036 265.435  0.00  0.00     0.023 A 
HETATM    4  C           1     176.990 183.486 264.246  0.00  0.00     0.044 A 
HETATM    5  C           1     176.024 184.493 264.276  0.00  0.00     0.023 A 
HETATM    6  C           1     175.634 185.050 265.493  0.00  0.00     0.014 A 
HETATM    7  C           1     177.358 182.962 263.100  0.00  0.00     0.099 C 
HETATM    8  N           1     177.682 182.500 262.088  0.00  0.00    -0.191 NA
ENDROOT
BRANCH   1   9
HETATM    9  C           1     175.833 185.132 267.849  0.00  0.00    -0.008 A 
HETATM   10  C           1     176.150 184.514 269.048  0.00  0.00     0.130 A 
HETATM   11  N           1     175.802 184.999 270.260  0.00  0.00    -0.253 NA
HETATM   12  C           1     175.106 186.157 270.269  0.00  0.00     0.101 A 
HETATM   13  C           1     174.743 186.849 269.125  0.00  0.00     0.006 A 
HETATM   14  C           1     175.115 186.323 267.892  0.00  0.00     0.025 A 
BRANCH  12  15
HETATM   15  S           1     174.618 186.847 271.876  0.00  0.00    -0.105 SA
BRANCH  15  16
HETATM   16  C           1     174.861 185.283 272.765  0.00  0.00     0.119 C 
BRANCH  16  17
HETATM   17  C           1     175.841 185.487 273.878  0.00  0.00    -0.049 A 
HETATM   18  C           1     177.029 186.179 273.643  0.00  0.00     0.008 A 
HETATM   19  C           1     177.942 186.368 274.681  0.00  0.00     0.001 A 
HETATM   20  C           1     177.667 185.865 275.952  0.00  0.00     0.000 A 
HETATM   21  C           1     176.480 185.173 276.187  0.00  0.00     0.001 A 
HETATM   22  C           1     175.566 184.983 275.150  0.00  0.00     0.008 A 
ENDBRANCH  16  17
ENDBRANCH  15  16
ENDBRANCH  12  15
BRANCH  13  23
HETATM   23  C           1     173.970 188.128 269.213  0.00  0.00     0.311 C 
BRANCH  23  24
HETATM   24  N           1     174.746 189.197 268.645  0.00  0.00     0.089 N 
HETATM   25  H           1     175.481 188.807 268.056  0.00  0.00     0.316 HD
BRANCH  24  26
HETATM   26  C           1     175.340 189.931 269.730  0.00  0.00     0.300 C 
BRANCH  26  27
HETATM   27  C           1     174.423 191.081 270.128  0.00  0.00     0.302 C 
BRANCH  27  28
HETATM   28  N           1     174.619 191.390 271.519  0.00  0.00     0.093 N 
HETATM   29  C           1     174.437 192.846 271.664  0.00  0.00     0.302 C 
HETATM   30  C           1     174.363 193.301 273.137  0.00  0.00     0.302 C 
HETATM   31  N           1     173.319 192.598 273.904  0.00  0.00     0.087 N 
HETATM   32  C           1     173.523 192.928 275.289  0.00  0.00     0.310 C 
HETATM   33  C           1     173.501 191.142 273.759  0.00  0.00     0.302 C 
HETATM   34  C           1     173.575 190.688 272.286  0.00  0.00     0.302 C 
ENDBRANCH  27  28
ENDBRANCH  26  27
ENDBRANCH  24  26
ENDBRANCH  23  24
ENDBRANCH  13  23
ENDBRANCH   1   9
TORSDOF 9
ENDMDL
MODEL 9
REMARK VINA RESULT:      -7.6      7.292     10.844
REMARK  9 active torsions:
REMARK  status: ('A' for Active; 'I' for Inactive)
REMARK    1  A    between atoms: C_2  and  C_17 
REMARK    2  A    between atoms: C_4  and  S_8 
REMARK    3  A    between atoms: C_5  and  C_7 
REMARK    4  A    between atoms: C_7  and  N_16 
REMARK    5  A    between atoms: S_8  and  C_9 
REMARK    6  A    between atoms: C_9  and  C_10 
REMARK    7  A    between atoms: N_16  and  C_18 
REMARK    8  A    between atoms: C_18  and  C_19 
REMARK    9  A    between atoms: C_19  and  N_20 
ROOT
HETATM    1  C           1     173.660 186.160 282.091  0.00  0.00    -0.024 A 
HETATM    2  C           1     174.395 185.083 282.589  0.00  0.00     0.014 A 
HETATM    3  C           1     174.505 184.891 283.966  0.00  0.00     0.023 A 
HETATM    4  C           1     173.880 185.776 284.845  0.00  0.00     0.044 A 
HETATM    5  C           1     173.146 186.853 284.347  0.00  0.00     0.023 A 
HETATM    6  C           1     173.036 187.044 282.970  0.00  0.00     0.014 A 
HETATM    7  C           1     173.984 185.595 286.142  0.00  0.00     0.099 C 
HETATM    8  N           1     174.075 185.436 287.285  0.00  0.00    -0.191 NA
ENDROOT
BRANCH   1   9
HETATM    9  C           1     173.555 186.343 280.771  0.00  0.00    -0.008 A 
HETATM   10  C           1     174.618 186.842 280.035  0.00  0.00     0.130 A 
HETATM   11  N           1     174.577 187.050 278.701  0.00  0.00    -0.253 NA
HETATM   12  C           1     173.419 186.744 278.077  0.00  0.00     0.101 A 
HETATM   13  C           1     172.302 186.241 278.725  0.00  0.00     0.006 A 
HETATM   14  C           1     172.375 186.038 280.099  0.00  0.00     0.025 A 
BRANCH  12  15
HETATM   15  S           1     173.319 187.007 276.283  0.00  0.00    -0.105 SA
BRANCH  15  16
HETATM   16  C           1     174.159 185.449 275.880  0.00  0.00     0.119 C 
BRANCH  16  17
HETATM   17  C           1     175.576 185.732 275.485  0.00  0.00    -0.049 A 
HETATM   18  C           1     176.610 185.512 276.394  0.00  0.00     0.008 A 
HETATM   19  C           1     177.929 185.778 276.026  0.00  0.00     0.001 A 
HETATM   20  C           1     178.213 186.262 274.749  0.00  0.00     0.000 A 
HETATM   21  C           1     177.179 186.482 273.841  0.00  0.00     0.001 A 
HETATM   22  C           1     175.859 186.217 274.208  0.00  0.00     0.008 A 
ENDBRANCH  16  17
ENDBRANCH  15  16
ENDBRANCH  12  15
BRANCH  13  23
HETATM   23  C           1     171.051 185.924 277.968  0.00  0.00     0.311 C 
BRANCH  23  24
HETATM   24  N           1     169.957 186.684 278.507  0.00  0.00     0.089 N 
HETATM   25  H           1     169.279 186.051 278.931  0.00  0.00     0.316 HD
BRANCH  24  26
HETATM   26  C           1     169.338 187.392 277.419  0.00  0.00     0.300 C 
BRANCH  26  27
HETATM   27  C           1     169.372 188.889 277.701  0.00  0.00     0.302 C 
BRANCH  27  28
HETATM   28  N           1     170.454 189.490 276.968  0.00  0.00     0.093 N 
HETATM   29  C           1     170.292 189.088 275.559  0.00  0.00     0.302 C 
HETATM   30  C           1     171.226 189.858 274.601  0.00  0.00     0.302 C 
HETATM   31  N           1     171.085 191.320 274.713  0.00  0.00     0.087 N 
HETATM   32  C           1     172.166 191.904 273.964  0.00  0.00     0.310 C 
HETATM   33  C           1     171.247 191.722 276.121  0.00  0.00     0.302 C 
HETATM   34  C           1     170.313 190.952 277.079  0.00  0.00     0.302 C 
ENDBRANCH  27  28
ENDBRANCH  26  27
ENDBRANCH  24  26
ENDBRANCH  23  24
ENDBRANCH  13  23
ENDBRANCH   1   9
TORSDOF 9
ENDMDL
