MODEL 1
REMARK VINA RESULT:      -8.0      0.000      0.000
REMARK  9 active torsions:
REMARK  status: ('A' for Active; 'I' for Inactive)
REMARK    1  A    between atoms: C2_2  and  N1_3 
REMARK    2  A    between atoms: C7_8  and  C8_9 
REMARK    3  A    between atoms: C8_9  and  C9_10 
REMARK    4  A    between atoms: C9_10  and  N2_11 
REMARK    5  A    between atoms: N2_11  and  C10_12 
REMARK    6  A    between atoms: C10_12  and  C11_13 
REMARK    7  A    between atoms: C19_22  and  S1_23 
REMARK    8  A    between atoms: S1_23  and  C20_24 
REMARK    9  A    between atoms: C20_24  and  C21_25 
ROOT
HETATM    1  C11 UNL     1     173.834 187.775 280.920  1.00  0.00     0.006 A 
HETATM    2  C12 UNL     1     173.744 188.967 281.658  1.00  0.00     0.025 A 
HETATM    3  C13 UNL     1     172.598 189.765 281.577  1.00  0.00    -0.007 A 
HETATM    4  C14 UNL     1     172.479 190.947 282.323  1.00  0.00     0.014 A 
HETATM    5  C15 UNL     1     171.314 191.718 282.230  1.00  0.00     0.001 A 
HETATM    6  C16 UNL     1     170.268 191.311 281.395  1.00  0.00     0.002 A 
HETATM    7  C17 UNL     1     170.379 190.134 280.650  1.00  0.00     0.032 A 
HETATM    8  C18 UNL     1     171.541 189.356 280.738  1.00  0.00     0.068 A 
HETATM    9  N3  UNL     1     171.647 188.205 280.027  1.00  0.00    -0.241 NA
HETATM   10  C19 UNL     1     172.750 187.413 280.087  1.00  0.00     0.102 A 
ENDROOT
BRANCH   1  11
HETATM   11  C10 UNL     1     175.055 186.904 281.103  1.00  0.00     0.311 C 
BRANCH  11  12
HETATM   12  N2  UNL     1     175.461 186.871 282.519  1.00  0.00     0.087 N 
HETATM   13  H19 UNL     1     176.472 187.142 282.563  1.00  0.00     0.316 HD
BRANCH  12  14
HETATM   14  C9  UNL     1     175.317 185.528 283.114  1.00  0.00     0.270 C 
BRANCH  14  15
HETATM   15  C8  UNL     1     173.830 185.167 283.247  1.00  0.00     0.034 C 
BRANCH  15  16
HETATM   16  C7  UNL     1     173.294 185.323 284.689  1.00  0.00    -0.010 C 
HETATM   17  C4  UNL     1     172.874 186.778 284.991  1.00  0.00     0.035 C 
HETATM   18  C3  UNL     1     172.456 186.924 286.457  1.00  0.00     0.272 C 
HETATM   19  N1  UNL     1     173.562 186.528 287.356  1.00  0.00     0.088 N 
HETATM   20  C5  UNL     1     173.904 185.106 287.139  1.00  0.00     0.272 C 
HETATM   21  C6  UNL     1     174.373 184.883 285.697  1.00  0.00     0.035 C 
BRANCH  19  22
HETATM   22  C2  UNL     1     173.193 186.757 288.772  1.00  0.00     0.268 C 
HETATM   23  C1  UNL     1     174.069 185.918 289.699  1.00  0.00     0.037 C 
ENDBRANCH  19  22
ENDBRANCH  15  16
ENDBRANCH  14  15
ENDBRANCH  12  14
ENDBRANCH  11  12
ENDBRANCH   1  11
BRANCH  10  24
HETATM   24  S1  UNL     1     172.743 185.905 279.110  1.00  0.00    -0.105 SA
BRANCH  24  25
HETATM   25  C20 UNL     1     173.007 186.748 277.510  1.00  0.00     0.119 C 
BRANCH  25  26
HETATM   26  C21 UNL     1     174.297 186.277 276.900  1.00  0.00    -0.049 A 
HETATM   27  C22 UNL     1     175.522 186.771 277.385  1.00  0.00     0.008 A 
HETATM   28  C23 UNL     1     176.728 186.360 276.807  1.00  0.00     0.001 A 
HETATM   29  C24 UNL     1     176.722 185.450 275.746  1.00  0.00     0.000 A 
HETATM   30  C25 UNL     1     175.508 184.949 275.261  1.00  0.00     0.001 A 
HETATM   31  C26 UNL     1     174.300 185.354 275.839  1.00  0.00     0.008 A 
ENDBRANCH  25  26
ENDBRANCH  24  25
ENDBRANCH  10  24
TORSDOF 9
ENDMDL
MODEL 2
REMARK VINA RESULT:      -7.9      3.695      9.619
REMARK  9 active torsions:
REMARK  status: ('A' for Active; 'I' for Inactive)
REMARK    1  A    between atoms: C2_2  and  N1_3 
REMARK    2  A    between atoms: C7_8  and  C8_9 
REMARK    3  A    between atoms: C8_9  and  C9_10 
REMARK    4  A    between atoms: C9_10  and  N2_11 
REMARK    5  A    between atoms: N2_11  and  C10_12 
REMARK    6  A    between atoms: C10_12  and  C11_13 
REMARK    7  A    between atoms: C19_22  and  S1_23 
REMARK    8  A    between atoms: S1_23  and  C20_24 
REMARK    9  A    between atoms: C20_24  and  C21_25 
ROOT
HETATM    1  C11 UNL     1     172.358 186.956 289.442  1.00  0.00     0.006 A 
HETATM    2  C12 UNL     1     172.477 186.755 290.827  1.00  0.00     0.025 A 
HETATM    3  C13 UNL     1     171.376 186.950 291.667  1.00  0.00    -0.007 A 
HETATM    4  C14 UNL     1     171.467 186.733 293.051  1.00  0.00     0.014 A 
HETATM    5  C15 UNL     1     170.344 186.924 293.863  1.00  0.00     0.001 A 
HETATM    6  C16 UNL     1     169.130 187.331 293.300  1.00  0.00     0.002 A 
HETATM    7  C17 UNL     1     169.031 187.547 291.922  1.00  0.00     0.032 A 
HETATM    8  C18 UNL     1     170.150 187.357 291.101  1.00  0.00     0.068 A 
HETATM    9  N3  UNL     1     170.055 187.552 289.762  1.00  0.00    -0.241 NA
HETATM   10  C19 UNL     1     171.110 187.371 288.924  1.00  0.00     0.102 A 
ENDROOT
BRANCH   1  11
HETATM   11  C10 UNL     1     173.552 186.653 288.565  1.00  0.00     0.311 C 
BRANCH  11  12
HETATM   12  N2  UNL     1     173.641 185.208 288.291  1.00  0.00     0.087 N 
HETATM   13  H19 UNL     1     174.624 184.909 288.494  1.00  0.00     0.316 HD
BRANCH  12  14
HETATM   14  C9  UNL     1     173.340 184.883 286.883  1.00  0.00     0.270 C 
BRANCH  14  15
HETATM   15  C8  UNL     1     174.644 184.641 286.107  1.00  0.00     0.034 C 
BRANCH  15  16
HETATM   16  C7  UNL     1     174.505 184.899 284.590  1.00  0.00    -0.010 C 
HETATM   17  C4  UNL     1     175.543 185.925 284.084  1.00  0.00     0.035 C 
HETATM   18  C3  UNL     1     175.308 186.244 282.605  1.00  0.00     0.272 C 
HETATM   19  N1  UNL     1     173.942 186.774 282.398  1.00  0.00     0.088 N 
HETATM   20  C5  UNL     1     172.942 185.758 282.789  1.00  0.00     0.272 C 
HETATM   21  C6  UNL     1     173.086 185.410 284.276  1.00  0.00     0.035 C 
BRANCH  19  22
HETATM   22  C2  UNL     1     173.744 187.171 280.984  1.00  0.00     0.268 C 
HETATM   23  C1  UNL     1     172.830 186.178 280.269  1.00  0.00     0.037 C 
ENDBRANCH  19  22
ENDBRANCH  15  16
ENDBRANCH  14  15
ENDBRANCH  12  14
ENDBRANCH  11  12
ENDBRANCH   1  11
BRANCH  10  24
HETATM   24  S1  UNL     1     170.834 187.643 287.169  1.00  0.00    -0.105 SA
BRANCH  24  25
HETATM   25  C20 UNL     1     169.079 188.118 287.354  1.00  0.00     0.119 C 
BRANCH  25  26
HETATM   26  C21 UNL     1     168.888 189.532 286.883  1.00  0.00    -0.049 A 
HETATM   27  C22 UNL     1     168.835 189.809 285.504  1.00  0.00     0.008 A 
HETATM   28  C23 UNL     1     168.685 191.126 285.054  1.00  0.00     0.001 A 
HETATM   29  C24 UNL     1     168.581 192.173 285.973  1.00  0.00     0.000 A 
HETATM   30  C25 UNL     1     168.627 191.906 287.347  1.00  0.00     0.001 A 
HETATM   31  C26 UNL     1     168.773 190.591 287.802  1.00  0.00     0.008 A 
ENDBRANCH  25  26
ENDBRANCH  24  25
ENDBRANCH  10  24
TORSDOF 9
ENDMDL
MODEL 3
REMARK VINA RESULT:      -7.7      8.285     13.173
REMARK  9 active torsions:
REMARK  status: ('A' for Active; 'I' for Inactive)
REMARK    1  A    between atoms: C2_2  and  N1_3 
REMARK    2  A    between atoms: C7_8  and  C8_9 
REMARK    3  A    between atoms: C8_9  and  C9_10 
REMARK    4  A    between atoms: C9_10  and  N2_11 
REMARK    5  A    between atoms: N2_11  and  C10_12 
REMARK    6  A    between atoms: C10_12  and  C11_13 
REMARK    7  A    between atoms: C19_22  and  S1_23 
REMARK    8  A    between atoms: S1_23  and  C20_24 
REMARK    9  A    between atoms: C20_24  and  C21_25 
ROOT
HETATM    1  C11 UNL     1     175.113 186.954 272.269  1.00  0.00     0.006 A 
HETATM    2  C12 UNL     1     176.318 187.152 272.963  1.00  0.00     0.025 A 
HETATM    3  C13 UNL     1     176.587 186.433 274.133  1.00  0.00    -0.007 A 
HETATM    4  C14 UNL     1     177.794 186.599 274.829  1.00  0.00     0.014 A 
HETATM    5  C15 UNL     1     178.039 185.857 275.990  1.00  0.00     0.001 A 
HETATM    6  C16 UNL     1     177.083 184.949 276.458  1.00  0.00     0.002 A 
HETATM    7  C17 UNL     1     175.880 184.777 275.768  1.00  0.00     0.032 A 
HETATM    8  C18 UNL     1     175.627 185.515 274.606  1.00  0.00     0.068 A 
HETATM    9  N3  UNL     1     174.465 185.341 273.926  1.00  0.00    -0.241 NA
HETATM   10  C19 UNL     1     174.179 186.027 272.788  1.00  0.00     0.102 A 
ENDROOT
BRANCH   1  11
HETATM   11  C10 UNL     1     174.903 187.690 270.966  1.00  0.00     0.311 C 
BRANCH  11  12
HETATM   12  N2  UNL     1     175.544 189.015 271.009  1.00  0.00     0.087 N 
HETATM   13  H19 UNL     1     175.135 189.537 271.819  1.00  0.00     0.316 HD
BRANCH  12  14
HETATM   14  C9  UNL     1     175.299 189.799 269.783  1.00  0.00     0.270 C 
BRANCH  14  15
HETATM   15  C8  UNL     1     175.314 188.876 268.555  1.00  0.00     0.034 C 
BRANCH  15  16
HETATM   16  C7  UNL     1     174.129 189.125 267.593  1.00  0.00    -0.010 C 
HETATM   17  C4  UNL     1     173.185 190.229 268.119  1.00  0.00     0.035 C 
HETATM   18  C3  UNL     1     171.965 190.374 267.206  1.00  0.00     0.272 C 
HETATM   19  N1  UNL     1     171.230 189.094 267.112  1.00  0.00     0.088 N 
HETATM   20  C5  UNL     1     172.099 188.056 266.518  1.00  0.00     0.272 C 
HETATM   21  C6  UNL     1     173.332 187.822 267.399  1.00  0.00     0.035 C 
BRANCH  19  22
HETATM   22  C2  UNL     1     169.998 189.256 266.305  1.00  0.00     0.268 C 
HETATM   23  C1  UNL     1     169.697 187.980 265.522  1.00  0.00     0.037 C 
ENDBRANCH  19  22
ENDBRANCH  15  16
ENDBRANCH  14  15
ENDBRANCH  12  14
ENDBRANCH  11  12
ENDBRANCH   1  11
BRANCH  10  24
HETATM   24  S1  UNL     1     172.612 185.678 271.979  1.00  0.00    -0.105 SA
BRANCH  24  25
HETATM   25  C20 UNL     1     172.988 183.920 271.653  1.00  0.00     0.119 C 
BRANCH  25  26
HETATM   26  C21 UNL     1     174.171 183.820 270.733  1.00  0.00    -0.049 A 
HETATM   27  C22 UNL     1     175.305 183.086 271.128  1.00  0.00     0.008 A 
HETATM   28  C23 UNL     1     176.423 183.008 270.290  1.00  0.00     0.001 A 
HETATM   29  C24 UNL     1     176.418 183.657 269.052  1.00  0.00     0.000 A 
HETATM   30  C25 UNL     1     175.292 184.384 268.649  1.00  0.00     0.001 A 
HETATM   31  C26 UNL     1     174.170 184.462 269.481  1.00  0.00     0.008 A 
ENDBRANCH  25  26
ENDBRANCH  24  25
ENDBRANCH  10  24
TORSDOF 9
ENDMDL
MODEL 4
REMARK VINA RESULT:      -7.7      8.246     11.965
REMARK  9 active torsions:
REMARK  status: ('A' for Active; 'I' for Inactive)
REMARK    1  A    between atoms: C2_2  and  N1_3 
REMARK    2  A    between atoms: C7_8  and  C8_9 
REMARK    3  A    between atoms: C8_9  and  C9_10 
REMARK    4  A    between atoms: C9_10  and  N2_11 
REMARK    5  A    between atoms: N2_11  and  C10_12 
REMARK    6  A    between atoms: C10_12  and  C11_13 
REMARK    7  A    between atoms: C19_22  and  S1_23 
REMARK    8  A    between atoms: S1_23  and  C20_24 
REMARK    9  A    between atoms: C20_24  and  C21_25 
ROOT
HETATM    1  C11 UNL     1     175.167 186.590 271.967  1.00  0.00     0.006 A 
HETATM    2  C12 UNL     1     176.369 186.814 272.658  1.00  0.00     0.025 A 
HETATM    3  C13 UNL     1     176.576 186.243 273.919  1.00  0.00    -0.007 A 
HETATM    4  C14 UNL     1     177.778 186.435 274.617  1.00  0.00     0.014 A 
HETATM    5  C15 UNL     1     177.960 185.842 275.871  1.00  0.00     0.001 A 
HETATM    6  C16 UNL     1     176.946 185.057 276.431  1.00  0.00     0.002 A 
HETATM    7  C17 UNL     1     175.747 184.860 275.740  1.00  0.00     0.032 A 
HETATM    8  C18 UNL     1     175.557 185.450 274.484  1.00  0.00     0.068 A 
HETATM    9  N3  UNL     1     174.400 185.249 273.805  1.00  0.00    -0.241 NA
HETATM   10  C19 UNL     1     174.173 185.793 272.579  1.00  0.00     0.102 A 
ENDROOT
BRANCH   1  11
HETATM   11  C10 UNL     1     175.022 187.157 270.573  1.00  0.00     0.311 C 
BRANCH  11  12
HETATM   12  N2  UNL     1     174.411 188.496 270.618  1.00  0.00     0.087 N 
HETATM   13  H19 UNL     1     173.401 188.391 270.361  1.00  0.00     0.316 HD
BRANCH  12  14
HETATM   14  C9  UNL     1     175.035 189.432 269.662  1.00  0.00     0.270 C 
BRANCH  14  15
HETATM   15  C8  UNL     1     175.546 190.678 270.400  1.00  0.00     0.034 C 
BRANCH  15  16
HETATM   16  C7  UNL     1     174.430 191.437 271.154  1.00  0.00    -0.010 C 
HETATM   17  C4  UNL     1     173.199 191.690 270.255  1.00  0.00     0.035 C 
HETATM   18  C3  UNL     1     172.160 192.539 270.992  1.00  0.00     0.272 C 
HETATM   19  N1  UNL     1     172.746 193.832 271.409  1.00  0.00     0.088 N 
HETATM   20  C5  UNL     1     173.864 193.600 272.347  1.00  0.00     0.272 C 
HETATM   21  C6  UNL     1     174.971 192.784 271.669  1.00  0.00     0.035 C 
BRANCH  19  22
HETATM   22  C2  UNL     1     171.717 194.693 272.039  1.00  0.00     0.268 C 
HETATM   23  C1  UNL     1     170.453 194.734 271.183  1.00  0.00     0.037 C 
ENDBRANCH  19  22
ENDBRANCH  15  16
ENDBRANCH  14  15
ENDBRANCH  12  14
ENDBRANCH  11  12
ENDBRANCH   1  11
BRANCH  10  24
HETATM   24  S1  UNL     1     172.604 185.424 271.784  1.00  0.00    -0.105 SA
BRANCH  24  25
HETATM   25  C20 UNL     1     172.940 183.640 271.582  1.00  0.00     0.119 C 
BRANCH  25  26
HETATM   26  C21 UNL     1     174.071 183.448 270.612  1.00  0.00    -0.049 A 
HETATM   27  C22 UNL     1     175.295 182.916 271.059  1.00  0.00     0.008 A 
HETATM   28  C23 UNL     1     176.364 182.758 270.170  1.00  0.00     0.001 A 
HETATM   29  C24 UNL     1     176.220 183.124 268.829  1.00  0.00     0.000 A 
HETATM   30  C25 UNL     1     175.004 183.649 268.374  1.00  0.00     0.001 A 
HETATM   31  C26 UNL     1     173.931 183.805 269.258  1.00  0.00     0.008 A 
ENDBRANCH  25  26
ENDBRANCH  24  25
ENDBRANCH  10  24
TORSDOF 9
ENDMDL
MODEL 5
REMARK VINA RESULT:      -7.6      3.037      8.891
REMARK  9 active torsions:
REMARK  status: ('A' for Active; 'I' for Inactive)
REMARK    1  A    between atoms: C2_2  and  N1_3 
REMARK    2  A    between atoms: C7_8  and  C8_9 
REMARK    3  A    between atoms: C8_9  and  C9_10 
REMARK    4  A    between atoms: C9_10  and  N2_11 
REMARK    5  A    between atoms: N2_11  and  C10_12 
REMARK    6  A    between atoms: C10_12  and  C11_13 
REMARK    7  A    between atoms: C19_22  and  S1_23 
REMARK    8  A    between atoms: S1_23  and  C20_24 
REMARK    9  A    between atoms: C20_24  and  C21_25 
ROOT
HETATM    1  C11 UNL     1     172.135 187.298 286.476  1.00  0.00     0.006 A 
HETATM    2  C12 UNL     1     172.608 187.840 285.269  1.00  0.00     0.025 A 
HETATM    3  C13 UNL     1     171.791 188.678 284.502  1.00  0.00    -0.007 A 
HETATM    4  C14 UNL     1     172.252 189.248 283.305  1.00  0.00     0.014 A 
HETATM    5  C15 UNL     1     171.416 190.093 282.567  1.00  0.00     0.001 A 
HETATM    6  C16 UNL     1     170.121 190.371 283.020  1.00  0.00     0.002 A 
HETATM    7  C17 UNL     1     169.657 189.808 284.212  1.00  0.00     0.032 A 
HETATM    8  C18 UNL     1     170.488 188.963 284.957  1.00  0.00     0.068 A 
HETATM    9  N3  UNL     1     170.045 188.426 286.122  1.00  0.00    -0.241 NA
HETATM   10  C19 UNL     1     170.818 187.607 286.885  1.00  0.00     0.102 A 
ENDROOT
BRANCH   1  11
HETATM   11  C10 UNL     1     173.081 186.466 287.311  1.00  0.00     0.311 C 
BRANCH  11  12
HETATM   12  N2  UNL     1     173.330 185.163 286.671  1.00  0.00     0.087 N 
HETATM   13  H19 UNL     1     173.014 184.420 287.337  1.00  0.00     0.316 HD
BRANCH  12  14
HETATM   14  C9  UNL     1     174.760 184.944 286.379  1.00  0.00     0.270 C 
BRANCH  14  15
HETATM   15  C8  UNL     1     174.933 184.435 284.940  1.00  0.00     0.034 C 
BRANCH  15  16
HETATM   16  C7  UNL     1     174.496 185.466 283.874  1.00  0.00    -0.010 C 
HETATM   17  C4  UNL     1     173.261 184.985 283.082  1.00  0.00     0.035 C 
HETATM   18  C3  UNL     1     172.922 185.972 281.962  1.00  0.00     0.272 C 
HETATM   19  N1  UNL     1     174.070 186.132 281.044  1.00  0.00     0.088 N 
HETATM   20  C5  UNL     1     175.229 186.685 281.777  1.00  0.00     0.272 C 
HETATM   21  C6  UNL     1     175.657 185.731 282.898  1.00  0.00     0.035 C 
BRANCH  19  22
HETATM   22  C2  UNL     1     173.713 187.013 279.908  1.00  0.00     0.268 C 
HETATM   23  C1  UNL     1     172.256 187.460 280.011  1.00  0.00     0.037 C 
ENDBRANCH  19  22
ENDBRANCH  15  16
ENDBRANCH  14  15
ENDBRANCH  12  14
ENDBRANCH  11  12
ENDBRANCH   1  11
BRANCH  10  24
HETATM   24  S1  UNL     1     170.110 186.987 288.417  1.00  0.00    -0.105 SA
BRANCH  24  25
HETATM   25  C20 UNL     1     171.095 188.078 289.503  1.00  0.00     0.119 C 
BRANCH  25  26
HETATM   26  C21 UNL     1     171.476 187.334 290.751  1.00  0.00    -0.049 A 
HETATM   27  C22 UNL     1     171.457 187.995 291.993  1.00  0.00     0.008 A 
HETATM   28  C23 UNL     1     171.836 187.320 293.159  1.00  0.00     0.001 A 
HETATM   29  C24 UNL     1     172.230 185.980 293.095  1.00  0.00     0.000 A 
HETATM   30  C25 UNL     1     172.246 185.313 291.865  1.00  0.00     0.001 A 
HETATM   31  C26 UNL     1     171.865 185.983 290.697  1.00  0.00     0.008 A 
ENDBRANCH  25  26
ENDBRANCH  24  25
ENDBRANCH  10  24
TORSDOF 9
ENDMDL
MODEL 6
REMARK VINA RESULT:      -7.6      3.500      9.392
REMARK  9 active torsions:
REMARK  status: ('A' for Active; 'I' for Inactive)
REMARK    1  A    between atoms: C2_2  and  N1_3 
REMARK    2  A    between atoms: C7_8  and  C8_9 
REMARK    3  A    between atoms: C8_9  and  C9_10 
REMARK    4  A    between atoms: C9_10  and  N2_11 
REMARK    5  A    between atoms: N2_11  and  C10_12 
REMARK    6  A    between atoms: C10_12  and  C11_13 
REMARK    7  A    between atoms: C19_22  and  S1_23 
REMARK    8  A    between atoms: S1_23  and  C20_24 
REMARK    9  A    between atoms: C20_24  and  C21_25 
ROOT
HETATM    1  C11 UNL     1     173.145 185.851 277.839  1.00  0.00     0.006 A 
HETATM    2  C12 UNL     1     173.557 185.338 276.598  1.00  0.00     0.025 A 
HETATM    3  C13 UNL     1     174.808 185.680 276.072  1.00  0.00    -0.007 A 
HETATM    4  C14 UNL     1     175.249 185.161 274.845  1.00  0.00     0.014 A 
HETATM    5  C15 UNL     1     176.509 185.512 274.350  1.00  0.00     0.001 A 
HETATM    6  C16 UNL     1     177.332 186.381 275.076  1.00  0.00     0.002 A 
HETATM    7  C17 UNL     1     176.899 186.900 276.300  1.00  0.00     0.032 A 
HETATM    8  C18 UNL     1     175.640 186.553 276.802  1.00  0.00     0.068 A 
HETATM    9  N3  UNL     1     175.222 187.044 277.996  1.00  0.00    -0.241 NA
HETATM   10  C19 UNL     1     174.012 186.729 278.530  1.00  0.00     0.102 A 
ENDROOT
BRANCH   1  11
HETATM   11  C10 UNL     1     171.823 185.388 278.406  1.00  0.00     0.311 C 
BRANCH  11  12
HETATM   12  N2  UNL     1     170.726 185.672 277.466  1.00  0.00     0.087 N 
HETATM   13  H19 UNL     1     170.970 185.222 276.552  1.00  0.00     0.316 HD
BRANCH  12  14
HETATM   14  C9  UNL     1     170.543 187.118 277.234  1.00  0.00     0.270 C 
BRANCH  14  15
HETATM   15  C8  UNL     1     169.959 187.359 275.834  1.00  0.00     0.034 C 
BRANCH  15  16
HETATM   16  C7  UNL     1     170.976 187.979 274.850  1.00  0.00    -0.010 C 
HETATM   17  C4  UNL     1     171.550 186.925 273.877  1.00  0.00     0.035 C 
HETATM   18  C3  UNL     1     172.635 187.544 272.992  1.00  0.00     0.272 C 
HETATM   19  N1  UNL     1     173.726 188.104 273.820  1.00  0.00     0.088 N 
HETATM   20  C5  UNL     1     173.200 189.182 274.685  1.00  0.00     0.272 C 
HETATM   21  C6  UNL     1     172.130 188.632 275.634  1.00  0.00     0.035 C 
BRANCH  19  22
HETATM   22  C2  UNL     1     174.820 188.619 272.965  1.00  0.00     0.268 C 
HETATM   23  C1  UNL     1     174.261 189.486 271.839  1.00  0.00     0.037 C 
ENDBRANCH  19  22
ENDBRANCH  15  16
ENDBRANCH  14  15
ENDBRANCH  12  14
ENDBRANCH  11  12
ENDBRANCH   1  11
BRANCH  10  24
HETATM   24  S1  UNL     1     173.600 187.434 280.130  1.00  0.00    -0.105 SA
BRANCH  24  25
HETATM   25  C20 UNL     1     175.047 186.728 280.995  1.00  0.00     0.119 C 
BRANCH  25  26
HETATM   26  C21 UNL     1     174.612 186.143 282.308  1.00  0.00    -0.049 A 
HETATM   27  C22 UNL     1     173.260 185.811 282.513  1.00  0.00     0.008 A 
HETATM   28  C23 UNL     1     172.839 185.290 283.742  1.00  0.00     0.001 A 
HETATM   29  C24 UNL     1     173.762 185.090 284.772  1.00  0.00     0.000 A 
HETATM   30  C25 UNL     1     175.110 185.412 284.575  1.00  0.00     0.001 A 
HETATM   31  C26 UNL     1     175.537 185.930 283.347  1.00  0.00     0.008 A 
ENDBRANCH  25  26
ENDBRANCH  24  25
ENDBRANCH  10  24
TORSDOF 9
ENDMDL
MODEL 7
REMARK VINA RESULT:      -7.5      4.275      7.322
REMARK  9 active torsions:
REMARK  status: ('A' for Active; 'I' for Inactive)
REMARK    1  A    between atoms: C2_2  and  N1_3 
REMARK    2  A    between atoms: C7_8  and  C8_9 
REMARK    3  A    between atoms: C8_9  and  C9_10 
REMARK    4  A    between atoms: C9_10  and  N2_11 
REMARK    5  A    between atoms: N2_11  and  C10_12 
REMARK    6  A    between atoms: C10_12  and  C11_13 
REMARK    7  A    between atoms: C19_22  and  S1_23 
REMARK    8  A    between atoms: S1_23  and  C20_24 
REMARK    9  A    between atoms: C20_24  and  C21_25 
ROOT
HETATM    1  C11 UNL     1     172.842 188.217 273.414  1.00  0.00     0.006 A 
HETATM    2  C12 UNL     1     172.953 189.615 273.350  1.00  0.00     0.025 A 
HETATM    3  C13 UNL     1     173.803 190.215 272.415  1.00  0.00    -0.007 A 
HETATM    4  C14 UNL     1     173.912 191.611 272.318  1.00  0.00     0.014 A 
HETATM    5  C15 UNL     1     174.762 192.181 271.365  1.00  0.00     0.001 A 
HETATM    6  C16 UNL     1     175.504 191.363 270.506  1.00  0.00     0.002 A 
HETATM    7  C17 UNL     1     175.399 189.972 270.596  1.00  0.00     0.032 A 
HETATM    8  C18 UNL     1     174.550 189.393 271.547  1.00  0.00     0.068 A 
HETATM    9  N3  UNL     1     174.435 188.044 271.627  1.00  0.00    -0.241 NA
HETATM   10  C19 UNL     1     173.617 187.436 272.527  1.00  0.00     0.102 A 
ENDROOT
BRANCH   1  11
HETATM   11  C10 UNL     1     171.848 187.617 274.383  1.00  0.00     0.311 C 
BRANCH  11  12
HETATM   12  N2  UNL     1     172.160 188.022 275.764  1.00  0.00     0.087 N 
HETATM   13  H19 UNL     1     172.515 189.007 275.731  1.00  0.00     0.316 HD
BRANCH  12  14
HETATM   14  C9  UNL     1     173.204 187.176 276.376  1.00  0.00     0.270 C 
BRANCH  14  15
HETATM   15  C8  UNL     1     172.558 186.096 277.257  1.00  0.00     0.034 C 
BRANCH  15  16
HETATM   16  C7  UNL     1     173.180 186.014 278.670  1.00  0.00    -0.010 C 
HETATM   17  C4  UNL     1     172.137 186.301 279.774  1.00  0.00     0.035 C 
HETATM   18  C3  UNL     1     172.804 186.324 281.151  1.00  0.00     0.272 C 
HETATM   19  N1  UNL     1     173.871 187.348 281.196  1.00  0.00     0.088 N 
HETATM   20  C5  UNL     1     174.922 187.024 280.208  1.00  0.00     0.272 C 
HETATM   21  C6  UNL     1     174.340 187.020 278.790  1.00  0.00     0.035 C 
BRANCH  19  22
HETATM   22  C2  UNL     1     174.454 187.437 282.555  1.00  0.00     0.268 C 
HETATM   23  C1  UNL     1     175.381 186.252 282.821  1.00  0.00     0.037 C 
ENDBRANCH  19  22
ENDBRANCH  15  16
ENDBRANCH  14  15
ENDBRANCH  12  14
ENDBRANCH  11  12
ENDBRANCH   1  11
BRANCH  10  24
HETATM   24  S1  UNL     1     173.547 185.640 272.505  1.00  0.00    -0.105 SA
BRANCH  24  25
HETATM   25  C20 UNL     1     175.346 185.410 272.284  1.00  0.00     0.119 C 
BRANCH  25  26
HETATM   26  C21 UNL     1     176.035 185.522 273.615  1.00  0.00    -0.049 A 
HETATM   27  C22 UNL     1     175.477 184.897 274.746  1.00  0.00     0.008 A 
HETATM   28  C23 UNL     1     176.096 185.016 275.995  1.00  0.00     0.001 A 
HETATM   29  C24 UNL     1     177.276 185.754 276.125  1.00  0.00     0.000 A 
HETATM   30  C25 UNL     1     177.840 186.374 275.004  1.00  0.00     0.001 A 
HETATM   31  C26 UNL     1     177.227 186.254 273.752  1.00  0.00     0.008 A 
ENDBRANCH  25  26
ENDBRANCH  24  25
ENDBRANCH  10  24
TORSDOF 9
ENDMDL
MODEL 8
REMARK VINA RESULT:      -7.5      2.152      8.484
REMARK  9 active torsions:
REMARK  status: ('A' for Active; 'I' for Inactive)
REMARK    1  A    between atoms: C2_2  and  N1_3 
REMARK    2  A    between atoms: C7_8  and  C8_9 
REMARK    3  A    between atoms: C8_9  and  C9_10 
REMARK    4  A    between atoms: C9_10  and  N2_11 
REMARK    5  A    between atoms: N2_11  and  C10_12 
REMARK    6  A    between atoms: C10_12  and  C11_13 
REMARK    7  A    between atoms: C19_22  and  S1_23 
REMARK    8  A    between atoms: S1_23  and  C20_24 
REMARK    9  A    between atoms: C20_24  and  C21_25 
ROOT
HETATM    1  C11 UNL     1     173.378 186.452 282.800  1.00  0.00     0.006 A 
HETATM    2  C12 UNL     1     172.974 185.469 283.719  1.00  0.00     0.025 A 
HETATM    3  C13 UNL     1     172.513 185.835 284.989  1.00  0.00    -0.007 A 
HETATM    4  C14 UNL     1     172.083 184.871 285.913  1.00  0.00     0.014 A 
HETATM    5  C15 UNL     1     171.616 185.269 287.171  1.00  0.00     0.001 A 
HETATM    6  C16 UNL     1     171.577 186.626 287.509  1.00  0.00     0.002 A 
HETATM    7  C17 UNL     1     172.002 187.591 286.592  1.00  0.00     0.032 A 
HETATM    8  C18 UNL     1     172.470 187.202 285.331  1.00  0.00     0.068 A 
HETATM    9  N3  UNL     1     172.870 188.137 284.433  1.00  0.00    -0.241 NA
HETATM   10  C19 UNL     1     173.323 187.809 283.194  1.00  0.00     0.102 A 
ENDROOT
BRANCH   1  11
HETATM   11  C10 UNL     1     173.788 186.015 281.413  1.00  0.00     0.311 C 
BRANCH  11  12
HETATM   12  N2  UNL     1     172.604 185.687 280.600  1.00  0.00     0.087 N 
HETATM   13  H19 UNL     1     172.256 184.751 280.913  1.00  0.00     0.316 HD
BRANCH  12  14
HETATM   14  C9  UNL     1     172.916 185.606 279.159  1.00  0.00     0.270 C 
BRANCH  14  15
HETATM   15  C8  UNL     1     173.840 186.764 278.753  1.00  0.00     0.034 C 
BRANCH  15  16
HETATM   16  C7  UNL     1     174.188 186.763 277.247  1.00  0.00    -0.010 C 
HETATM   17  C4  UNL     1     173.486 185.610 276.496  1.00  0.00     0.035 C 
HETATM   18  C3  UNL     1     173.937 185.567 275.034  1.00  0.00     0.272 C 
HETATM   19  N1  UNL     1     175.404 185.397 274.947  1.00  0.00     0.088 N 
HETATM   20  C5  UNL     1     176.084 186.547 275.579  1.00  0.00     0.272 C 
HETATM   21  C6  UNL     1     175.712 186.638 277.064  1.00  0.00     0.035 C 
BRANCH  19  22
HETATM   22  C2  UNL     1     175.833 185.260 273.535  1.00  0.00     0.268 C 
HETATM   23  C1  UNL     1     176.833 186.354 273.168  1.00  0.00     0.037 C 
ENDBRANCH  19  22
ENDBRANCH  15  16
ENDBRANCH  14  15
ENDBRANCH  12  14
ENDBRANCH  11  12
ENDBRANCH   1  11
BRANCH  10  24
HETATM   24  S1  UNL     1     173.798 189.152 282.099  1.00  0.00    -0.105 SA
BRANCH  24  25
HETATM   25  C20 UNL     1     172.175 189.266 281.268  1.00  0.00     0.119 C 
BRANCH  25  26
HETATM   26  C21 UNL     1     171.554 190.603 281.557  1.00  0.00    -0.049 A 
HETATM   27  C22 UNL     1     170.773 191.240 280.575  1.00  0.00     0.008 A 
HETATM   28  C23 UNL     1     170.212 192.497 280.823  1.00  0.00     0.001 A 
HETATM   29  C24 UNL     1     170.420 193.126 282.054  1.00  0.00     0.000 A 
HETATM   30  C25 UNL     1     171.191 192.498 283.040  1.00  0.00     0.001 A 
HETATM   31  C26 UNL     1     171.751 191.238 282.797  1.00  0.00     0.008 A 
ENDBRANCH  25  26
ENDBRANCH  24  25
ENDBRANCH  10  24
TORSDOF 9
ENDMDL
MODEL 9
REMARK VINA RESULT:      -7.4      8.206     12.357
REMARK  9 active torsions:
REMARK  status: ('A' for Active; 'I' for Inactive)
REMARK    1  A    between atoms: C2_2  and  N1_3 
REMARK    2  A    between atoms: C7_8  and  C8_9 
REMARK    3  A    between atoms: C8_9  and  C9_10 
REMARK    4  A    between atoms: C9_10  and  N2_11 
REMARK    5  A    between atoms: N2_11  and  C10_12 
REMARK    6  A    between atoms: C10_12  and  C11_13 
REMARK    7  A    between atoms: C19_22  and  S1_23 
REMARK    8  A    between atoms: S1_23  and  C20_24 
REMARK    9  A    between atoms: C20_24  and  C21_25 
ROOT
HETATM    1  C11 UNL     1     174.018 186.907 272.844  1.00  0.00     0.006 A 
HETATM    2  C12 UNL     1     174.435 185.806 273.610  1.00  0.00     0.025 A 
HETATM    3  C13 UNL     1     175.460 185.946 274.552  1.00  0.00    -0.007 A 
HETATM    4  C14 UNL     1     175.876 184.864 275.343  1.00  0.00     0.014 A 
HETATM    5  C15 UNL     1     176.896 185.038 276.285  1.00  0.00     0.001 A 
HETATM    6  C16 UNL     1     177.503 186.290 276.440  1.00  0.00     0.002 A 
HETATM    7  C17 UNL     1     177.092 187.372 275.656  1.00  0.00     0.032 A 
HETATM    8  C18 UNL     1     176.071 187.206 274.712  1.00  0.00     0.068 A 
HETATM    9  N3  UNL     1     175.661 188.257 273.959  1.00  0.00    -0.241 NA
HETATM   10  C19 UNL     1     174.668 188.148 273.036  1.00  0.00     0.102 A 
ENDROOT
BRANCH   1  11
HETATM   11  C10 UNL     1     172.851 186.728 271.901  1.00  0.00     0.311 C 
BRANCH  11  12
HETATM   12  N2  UNL     1     172.109 185.497 272.221  1.00  0.00     0.087 N 
HETATM   13  H19 UNL     1     172.607 185.025 273.011  1.00  0.00     0.316 HD
BRANCH  12  14
HETATM   14  C9  UNL     1     172.056 184.559 271.082  1.00  0.00     0.270 C 
BRANCH  14  15
HETATM   15  C8  UNL     1     172.965 183.350 271.352  1.00  0.00     0.034 C 
BRANCH  15  16
HETATM   16  C7  UNL     1     174.135 183.233 270.349  1.00  0.00    -0.010 C 
HETATM   17  C4  UNL     1     175.502 183.459 271.032  1.00  0.00     0.035 C 
HETATM   18  C3  UNL     1     176.629 183.450 269.997  1.00  0.00     0.272 C 
HETATM   19  N1  UNL     1     176.405 184.496 268.974  1.00  0.00     0.088 N 
HETATM   20  C5  UNL     1     175.145 184.230 268.249  1.00  0.00     0.272 C 
HETATM   21  C6  UNL     1     173.955 184.261 269.216  1.00  0.00     0.035 C 
BRANCH  19  22
HETATM   22  C2  UNL     1     177.542 184.552 268.025  1.00  0.00     0.268 C 
HETATM   23  C1  UNL     1     177.104 184.094 266.635  1.00  0.00     0.037 C 
ENDBRANCH  19  22
ENDBRANCH  15  16
ENDBRANCH  14  15
ENDBRANCH  12  14
ENDBRANCH  11  12
ENDBRANCH   1  11
BRANCH  10  24
HETATM   24  S1  UNL     1     174.211 189.629 272.127  1.00  0.00    -0.105 SA
BRANCH  24  25
HETATM   25  C20 UNL     1     175.417 189.369 270.779  1.00  0.00     0.119 C 
BRANCH  25  26
HETATM   26  C21 UNL     1     174.685 189.099 269.495  1.00  0.00    -0.049 A 
HETATM   27  C22 UNL     1     173.731 190.021 269.025  1.00  0.00     0.008 A 
HETATM   28  C23 UNL     1     173.025 189.766 267.844  1.00  0.00     0.001 A 
HETATM   29  C24 UNL     1     173.267 188.595 267.121  1.00  0.00     0.000 A 
HETATM   30  C25 UNL     1     174.217 187.675 267.578  1.00  0.00     0.001 A 
HETATM   31  C26 UNL     1     174.930 187.927 268.757  1.00  0.00     0.008 A 
ENDBRANCH  25  26
ENDBRANCH  24  25
ENDBRANCH  10  24
TORSDOF 9
ENDMDL
