MODEL 1
REMARK VINA RESULT:      -8.3      0.000      0.000
REMARK  9 active torsions:
REMARK  status: ('A' for Active; 'I' for Inactive)
REMARK    1  A    between atoms: C_2  and  C_17 
REMARK    2  A    between atoms: C_4  and  S_8 
REMARK    3  A    between atoms: C_5  and  C_7 
REMARK    4  A    between atoms: C_7  and  N_16 
REMARK    5  A    between atoms: S_8  and  C_9 
REMARK    6  A    between atoms: C_9  and  C_10 
REMARK    7  A    between atoms: N_16  and  C_18 
REMARK    8  A    between atoms: C_18  and  C_19 
REMARK    9  A    between atoms: C_19  and  N_20 
ROOT
HETATM    1  C           1     173.478 189.184 283.614  0.00  0.00     0.130 A 
HETATM    2  C           1     172.650 189.423 282.529  0.00  0.00    -0.005 A 
HETATM    3  N           1     174.415 188.211 283.645  0.00  0.00    -0.253 NA
HETATM    4  C           1     174.527 187.445 282.538  0.00  0.00     0.101 A 
HETATM    5  C           1     173.746 187.607 281.404  0.00  0.00     0.006 A 
HETATM    6  C           1     172.790 188.617 281.403  0.00  0.00     0.025 A 
ENDROOT
BRANCH   5   7
HETATM    7  C           1     173.927 186.720 280.212  0.00  0.00     0.311 C 
BRANCH   7   8
HETATM    8  N           1     172.722 185.968 279.987  0.00  0.00     0.089 N 
HETATM    9  H           1     172.721 185.140 280.582  0.00  0.00     0.316 HD
BRANCH   8  10
HETATM   10  C           1     172.711 185.565 278.606  0.00  0.00     0.300 C 
BRANCH  10  11
HETATM   11  C           1     173.727 186.391 277.828  0.00  0.00     0.302 C 
BRANCH  11  12
HETATM   12  N           1     174.182 185.643 276.688  0.00  0.00     0.093 N 
HETATM   13  C           1     173.358 186.062 275.542  0.00  0.00     0.302 C 
HETATM   14  C           1     173.890 185.537 274.191  0.00  0.00     0.302 C 
HETATM   15  N           1     175.295 185.907 273.944  0.00  0.00     0.087 N 
HETATM   16  C           1     175.730 185.159 272.796  0.00  0.00     0.310 C 
HETATM   17  C           1     176.121 185.488 275.091  0.00  0.00     0.302 C 
HETATM   18  C           1     175.587 186.013 276.441  0.00  0.00     0.302 C 
ENDBRANCH  11  12
ENDBRANCH  10  11
ENDBRANCH   8  10
ENDBRANCH   7   8
ENDBRANCH   5   7
BRANCH   4  19
HETATM   19  S           1     175.774 186.126 282.534  0.00  0.00    -0.105 SA
BRANCH  19  20
HETATM   20  C           1     174.558 184.802 282.790  0.00  0.00     0.119 C 
BRANCH  20  21
HETATM   21  C           1     174.035 184.868 284.190  0.00  0.00    -0.049 A 
HETATM   22  C           1     174.901 184.691 285.268  0.00  0.00     0.008 A 
HETATM   23  C           1     174.413 184.754 286.573  0.00  0.00     0.001 A 
HETATM   24  C           1     173.058 184.993 286.800  0.00  0.00     0.000 A 
HETATM   25  C           1     172.191 185.170 285.722  0.00  0.00     0.001 A 
HETATM   26  C           1     172.679 185.107 284.417  0.00  0.00     0.008 A 
ENDBRANCH  20  21
ENDBRANCH  19  20
ENDBRANCH   4  19
BRANCH   2  27
HETATM   27  C           1     171.741 190.403 282.562  0.00  0.00     0.014 A 
HETATM   28  C           1     170.530 190.209 283.227  0.00  0.00     0.018 A 
HETATM   29  C           1     169.581 191.232 283.260  0.00  0.00     0.043 A 
HETATM   30  C           1     169.843 192.446 282.629  0.00  0.00     0.119 A 
HETATM   31  F           1     168.945 193.413 282.660  0.00  0.00    -0.206 F 
HETATM   32  C           1     171.054 192.641 281.963  0.00  0.00     0.085 A 
HETATM   33  C           1     172.002 191.619 281.930  0.00  0.00     0.130 A 
HETATM   34  F           1     173.148 191.802 281.300  0.00  0.00    -0.205 F 
ENDBRANCH   2  27
TORSDOF 9
ENDMDL
MODEL 2
REMARK VINA RESULT:      -8.2      8.537     13.383
REMARK  9 active torsions:
REMARK  status: ('A' for Active; 'I' for Inactive)
REMARK    1  A    between atoms: C_2  and  C_17 
REMARK    2  A    between atoms: C_4  and  S_8 
REMARK    3  A    between atoms: C_5  and  C_7 
REMARK    4  A    between atoms: C_7  and  N_16 
REMARK    5  A    between atoms: S_8  and  C_9 
REMARK    6  A    between atoms: C_9  and  C_10 
REMARK    7  A    between atoms: N_16  and  C_18 
REMARK    8  A    between atoms: C_18  and  C_19 
REMARK    9  A    between atoms: C_19  and  N_20 
ROOT
HETATM    1  C           1     174.538 186.414 272.072  0.00  0.00     0.130 A 
HETATM    2  C           1     175.647 185.649 272.400  0.00  0.00    -0.005 A 
HETATM    3  N           1     173.929 186.377 270.867  0.00  0.00    -0.253 NA
HETATM    4  C           1     174.453 185.535 269.951  0.00  0.00     0.101 A 
HETATM    5  C           1     175.557 184.730 270.184  0.00  0.00     0.006 A 
HETATM    6  C           1     176.163 184.791 271.434  0.00  0.00     0.025 A 
ENDROOT
BRANCH   5   7
HETATM    7  C           1     176.084 183.820 269.118  0.00  0.00     0.311 C 
BRANCH   7   8
HETATM    8  N           1     177.267 184.395 268.537  0.00  0.00     0.089 N 
HETATM    9  H           1     177.284 185.398 268.722  0.00  0.00     0.316 HD
BRANCH   8  10
HETATM   10  C           1     177.209 184.170 267.118  0.00  0.00     0.300 C 
BRANCH  10  11
HETATM   11  C           1     176.234 183.038 266.822  0.00  0.00     0.302 C 
BRANCH  11  12
HETATM   12  N           1     175.776 183.141 265.463  0.00  0.00     0.093 N 
HETATM   13  C           1     174.311 182.992 265.490  0.00  0.00     0.302 C 
HETATM   14  C           1     173.645 183.332 264.140  0.00  0.00     0.302 C 
HETATM   15  N           1     173.990 184.679 263.652  0.00  0.00     0.087 N 
HETATM   16  C           1     173.516 184.768 262.297  0.00  0.00     0.310 C 
HETATM   17  C           1     175.456 184.829 263.625  0.00  0.00     0.302 C 
HETATM   18  C           1     176.121 184.488 264.975  0.00  0.00     0.302 C 
ENDBRANCH  11  12
ENDBRANCH  10  11
ENDBRANCH   8  10
ENDBRANCH   7   8
ENDBRANCH   5   7
BRANCH   4  19
HETATM   19  S           1     173.666 185.452 268.317  0.00  0.00    -0.105 SA
BRANCH  19  20
HETATM   20  C           1     174.576 186.881 267.665  0.00  0.00     0.119 C 
BRANCH  20  21
HETATM   21  C           1     173.636 188.028 267.474  0.00  0.00    -0.049 A 
HETATM   22  C           1     172.428 187.836 266.803  0.00  0.00     0.008 A 
HETATM   23  C           1     171.551 188.906 266.627  0.00  0.00     0.001 A 
HETATM   24  C           1     171.881 190.168 267.119  0.00  0.00     0.000 A 
HETATM   25  C           1     173.089 190.360 267.790  0.00  0.00     0.001 A 
HETATM   26  C           1     173.966 189.291 267.967  0.00  0.00     0.008 A 
ENDBRANCH  20  21
ENDBRANCH  19  20
ENDBRANCH   4  19
BRANCH   2  27
HETATM   27  C           1     176.204 185.732 273.612  0.00  0.00     0.014 A 
HETATM   28  C           1     177.469 186.302 273.761  0.00  0.00     0.018 A 
HETATM   29  C           1     178.051 186.387 275.025  0.00  0.00     0.043 A 
HETATM   30  C           1     177.370 185.903 276.141  0.00  0.00     0.119 A 
HETATM   31  F           1     177.922 185.984 277.337  0.00  0.00    -0.206 F 
HETATM   32  C           1     176.105 185.333 275.993  0.00  0.00     0.085 A 
HETATM   33  C           1     175.523 185.247 274.729  0.00  0.00     0.130 A 
HETATM   34  F           1     174.327 184.708 274.589  0.00  0.00    -0.205 F 
ENDBRANCH   2  27
TORSDOF 9
ENDMDL
MODEL 3
REMARK VINA RESULT:      -8.2      8.218     12.453
REMARK  9 active torsions:
REMARK  status: ('A' for Active; 'I' for Inactive)
REMARK    1  A    between atoms: C_2  and  C_17 
REMARK    2  A    between atoms: C_4  and  S_8 
REMARK    3  A    between atoms: C_5  and  C_7 
REMARK    4  A    between atoms: C_7  and  N_16 
REMARK    5  A    between atoms: S_8  and  C_9 
REMARK    6  A    between atoms: C_9  and  C_10 
REMARK    7  A    between atoms: N_16  and  C_18 
REMARK    8  A    between atoms: C_18  and  C_19 
REMARK    9  A    between atoms: C_19  and  N_20 
ROOT
HETATM    1  C           1     176.081 184.815 271.548  0.00  0.00     0.130 A 
HETATM    2  C           1     175.603 185.653 272.543  0.00  0.00    -0.005 A 
HETATM    3  N           1     175.501 184.680 270.336  0.00  0.00    -0.253 NA
HETATM    4  C           1     174.394 185.419 270.109  0.00  0.00     0.101 A 
HETATM    5  C           1     173.841 186.285 271.039  0.00  0.00     0.006 A 
HETATM    6  C           1     174.460 186.403 272.279  0.00  0.00     0.025 A 
ENDROOT
BRANCH   5   7
HETATM    7  C           1     172.610 187.075 270.717  0.00  0.00     0.311 C 
BRANCH   7   8
HETATM    8  N           1     172.860 188.471 270.955  0.00  0.00     0.089 N 
HETATM    9  H           1     173.458 188.575 271.774  0.00  0.00     0.316 HD
BRANCH   8  10
HETATM   10  C           1     171.593 189.105 271.202  0.00  0.00     0.300 C 
BRANCH  10  11
HETATM   11  C           1     171.731 190.609 271.007  0.00  0.00     0.302 C 
BRANCH  11  12
HETATM   12  N           1     172.835 191.095 271.789  0.00  0.00     0.093 N 
HETATM   13  C           1     173.475 192.169 271.010  0.00  0.00     0.302 C 
HETATM   14  C           1     174.520 192.964 271.822  0.00  0.00     0.302 C 
HETATM   15  N           1     173.972 193.525 273.069  0.00  0.00     0.087 N 
HETATM   16  C           1     175.087 194.016 273.833  0.00  0.00     0.310 C 
HETATM   17  C           1     173.331 192.452 273.850  0.00  0.00     0.302 C 
HETATM   18  C           1     172.287 191.657 273.037  0.00  0.00     0.302 C 
ENDBRANCH  11  12
ENDBRANCH  10  11
ENDBRANCH   8  10
ENDBRANCH   7   8
ENDBRANCH   5   7
BRANCH   4  19
HETATM   19  S           1     173.583 185.270 268.492  0.00  0.00    -0.105 SA
BRANCH  19  20
HETATM   20  C           1     174.735 186.404 267.667  0.00  0.00     0.119 C 
BRANCH  20  21
HETATM   21  C           1     174.142 187.777 267.625  0.00  0.00    -0.049 A 
HETATM   22  C           1     174.883 188.871 268.072  0.00  0.00     0.008 A 
HETATM   23  C           1     174.330 190.150 268.033  0.00  0.00     0.001 A 
HETATM   24  C           1     173.036 190.337 267.548  0.00  0.00     0.000 A 
HETATM   25  C           1     172.295 189.243 267.101  0.00  0.00     0.001 A 
HETATM   26  C           1     172.847 187.963 267.140  0.00  0.00     0.008 A 
ENDBRANCH  20  21
ENDBRANCH  19  20
ENDBRANCH   4  19
BRANCH   2  27
HETATM   27  C           1     176.223 185.742 273.723  0.00  0.00     0.014 A 
HETATM   28  C           1     177.498 186.302 273.801  0.00  0.00     0.018 A 
HETATM   29  C           1     178.146 186.394 275.033  0.00  0.00     0.043 A 
HETATM   30  C           1     177.519 185.926 276.187  0.00  0.00     0.119 A 
HETATM   31  F           1     178.132 186.013 277.353  0.00  0.00    -0.206 F 
HETATM   32  C           1     176.244 185.366 276.110  0.00  0.00     0.085 A 
HETATM   33  C           1     175.596 185.274 274.878  0.00  0.00     0.130 A 
HETATM   34  F           1     174.390 184.744 274.805  0.00  0.00    -0.205 F 
ENDBRANCH   2  27
TORSDOF 9
ENDMDL
MODEL 4
REMARK VINA RESULT:      -8.2      8.413     13.447
REMARK  9 active torsions:
REMARK  status: ('A' for Active; 'I' for Inactive)
REMARK    1  A    between atoms: C_2  and  C_17 
REMARK    2  A    between atoms: C_4  and  S_8 
REMARK    3  A    between atoms: C_5  and  C_7 
REMARK    4  A    between atoms: C_7  and  N_16 
REMARK    5  A    between atoms: S_8  and  C_9 
REMARK    6  A    between atoms: C_9  and  C_10 
REMARK    7  A    between atoms: N_16  and  C_18 
REMARK    8  A    between atoms: C_18  and  C_19 
REMARK    9  A    between atoms: C_19  and  N_20 
ROOT
HETATM    1  C           1     174.497 186.427 272.192  0.00  0.00     0.130 A 
HETATM    2  C           1     175.611 185.673 272.527  0.00  0.00    -0.005 A 
HETATM    3  N           1     173.896 186.385 270.983  0.00  0.00    -0.253 NA
HETATM    4  C           1     174.435 185.549 270.069  0.00  0.00     0.101 A 
HETATM    5  C           1     175.545 184.755 270.309  0.00  0.00     0.006 A 
HETATM    6  C           1     176.142 184.821 271.563  0.00  0.00     0.025 A 
ENDROOT
BRANCH   5   7
HETATM    7  C           1     176.088 183.851 269.246  0.00  0.00     0.311 C 
BRANCH   7   8
HETATM    8  N           1     177.467 184.174 268.999  0.00  0.00     0.089 N 
HETATM    9  H           1     177.753 184.937 269.613  0.00  0.00     0.316 HD
BRANCH   8  10
HETATM   10  C           1     177.578 184.594 267.628  0.00  0.00     0.300 C 
BRANCH  10  11
HETATM   11  C           1     176.694 183.714 266.755  0.00  0.00     0.302 C 
BRANCH  11  12
HETATM   12  N           1     177.346 183.476 265.496  0.00  0.00     0.093 N 
HETATM   13  C           1     177.420 182.015 265.318  0.00  0.00     0.302 C 
HETATM   14  C           1     177.865 181.601 263.900  0.00  0.00     0.302 C 
HETATM   15  N           1     177.020 182.180 262.841  0.00  0.00     0.087 N 
HETATM   16  C           1     177.681 181.924 261.590  0.00  0.00     0.310 C 
HETATM   17  C           1     176.945 183.642 263.017  0.00  0.00     0.302 C 
HETATM   18  C           1     176.501 184.055 264.437  0.00  0.00     0.302 C 
ENDBRANCH  11  12
ENDBRANCH  10  11
ENDBRANCH   8  10
ENDBRANCH   7   8
ENDBRANCH   5   7
BRANCH   4  19
HETATM   19  S           1     173.658 185.460 268.430  0.00  0.00    -0.105 SA
BRANCH  19  20
HETATM   20  C           1     174.581 186.880 267.776  0.00  0.00     0.119 C 
BRANCH  20  21
HETATM   21  C           1     173.643 188.024 267.550  0.00  0.00    -0.049 A 
HETATM   22  C           1     173.955 189.290 268.044  0.00  0.00     0.008 A 
HETATM   23  C           1     173.081 190.356 267.832  0.00  0.00     0.001 A 
HETATM   24  C           1     171.894 190.156 267.128  0.00  0.00     0.000 A 
HETATM   25  C           1     171.581 188.889 266.635  0.00  0.00     0.001 A 
HETATM   26  C           1     172.455 187.823 266.846  0.00  0.00     0.008 A 
ENDBRANCH  20  21
ENDBRANCH  19  20
ENDBRANCH   4  19
BRANCH   2  27
HETATM   27  C           1     176.160 185.760 273.742  0.00  0.00     0.014 A 
HETATM   28  C           1     177.430 186.316 273.896  0.00  0.00     0.018 A 
HETATM   29  C           1     178.004 186.406 275.164  0.00  0.00     0.043 A 
HETATM   30  C           1     177.307 185.941 276.278  0.00  0.00     0.119 A 
HETATM   31  F           1     177.850 186.027 277.479  0.00  0.00    -0.206 F 
HETATM   32  C           1     176.037 185.385 276.126  0.00  0.00     0.085 A 
HETATM   33  C           1     175.463 185.295 274.858  0.00  0.00     0.130 A 
HETATM   34  F           1     174.261 184.769 274.713  0.00  0.00    -0.205 F 
ENDBRANCH   2  27
TORSDOF 9
ENDMDL
MODEL 5
REMARK VINA RESULT:      -7.8      8.432     13.553
REMARK  9 active torsions:
REMARK  status: ('A' for Active; 'I' for Inactive)
REMARK    1  A    between atoms: C_2  and  C_17 
REMARK    2  A    between atoms: C_4  and  S_8 
REMARK    3  A    between atoms: C_5  and  C_7 
REMARK    4  A    between atoms: C_7  and  N_16 
REMARK    5  A    between atoms: S_8  and  C_9 
REMARK    6  A    between atoms: C_9  and  C_10 
REMARK    7  A    between atoms: N_16  and  C_18 
REMARK    8  A    between atoms: C_18  and  C_19 
REMARK    9  A    between atoms: C_19  and  N_20 
ROOT
HETATM    1  C           1     175.952 184.192 271.534  0.00  0.00     0.130 A 
HETATM    2  C           1     175.725 185.436 272.102  0.00  0.00    -0.005 A 
HETATM    3  N           1     175.681 183.893 270.245  0.00  0.00    -0.253 NA
HETATM    4  C           1     175.160 184.885 269.491  0.00  0.00     0.101 A 
HETATM    5  C           1     174.898 186.160 269.967  0.00  0.00     0.006 A 
HETATM    6  C           1     175.187 186.437 271.299  0.00  0.00     0.025 A 
ENDROOT
BRANCH   5   7
HETATM    7  C           1     174.318 187.211 269.072  0.00  0.00     0.311 C 
BRANCH   7   8
HETATM    8  N           1     175.382 187.987 268.492  0.00  0.00     0.089 N 
HETATM    9  H           1     176.235 187.854 269.035  0.00  0.00     0.316 HD
BRANCH   8  10
HETATM   10  C           1     174.991 189.369 268.543  0.00  0.00     0.300 C 
BRANCH  10  11
HETATM   11  C           1     173.804 189.527 269.485  0.00  0.00     0.302 C 
BRANCH  11  12
HETATM   12  N           1     174.208 190.275 270.644  0.00  0.00     0.093 N 
HETATM   13  C           1     175.054 191.383 270.168  0.00  0.00     0.302 C 
HETATM   14  C           1     175.359 192.425 271.265  0.00  0.00     0.302 C 
HETATM   15  N           1     174.142 192.973 271.891  0.00  0.00     0.087 N 
HETATM   16  C           1     174.565 193.727 273.041  0.00  0.00     0.310 C 
HETATM   17  C           1     173.295 191.865 272.368  0.00  0.00     0.302 C 
HETATM   18  C           1     172.992 190.823 271.270  0.00  0.00     0.302 C 
ENDBRANCH  11  12
ENDBRANCH  10  11
ENDBRANCH   8  10
ENDBRANCH   7   8
ENDBRANCH   5   7
BRANCH   4  19
HETATM   19  S           1     174.780 184.527 267.752  0.00  0.00    -0.105 SA
BRANCH  19  20
HETATM   20  C           1     176.474 184.007 267.357  0.00  0.00     0.119 C 
BRANCH  20  21
HETATM   21  C           1     176.621 183.865 265.875  0.00  0.00    -0.049 A 
HETATM   22  C           1     175.924 184.719 265.020  0.00  0.00     0.008 A 
HETATM   23  C           1     176.062 184.586 263.639  0.00  0.00     0.001 A 
HETATM   24  C           1     176.895 183.601 263.111  0.00  0.00     0.000 A 
HETATM   25  C           1     177.592 182.747 263.966  0.00  0.00     0.001 A 
HETATM   26  C           1     177.455 182.878 265.348  0.00  0.00     0.008 A 
ENDBRANCH  20  21
ENDBRANCH  19  20
ENDBRANCH   4  19
BRANCH   2  27
HETATM   27  C           1     176.016 185.669 273.385  0.00  0.00     0.014 A 
HETATM   28  C           1     177.253 186.211 273.733  0.00  0.00     0.018 A 
HETATM   29  C           1     177.557 186.454 275.073  0.00  0.00     0.043 A 
HETATM   30  C           1     176.624 186.154 276.064  0.00  0.00     0.119 A 
HETATM   31  F           1     176.911 186.383 277.332  0.00  0.00    -0.206 F 
HETATM   32  C           1     175.386 185.611 275.717  0.00  0.00     0.085 A 
HETATM   33  C           1     175.083 185.369 274.378  0.00  0.00     0.130 A 
HETATM   34  F           1     173.912 184.856 274.049  0.00  0.00    -0.205 F 
ENDBRANCH   2  27
TORSDOF 9
ENDMDL
MODEL 6
REMARK VINA RESULT:      -7.7      7.473     12.580
REMARK  9 active torsions:
REMARK  status: ('A' for Active; 'I' for Inactive)
REMARK    1  A    between atoms: C_2  and  C_17 
REMARK    2  A    between atoms: C_4  and  S_8 
REMARK    3  A    between atoms: C_5  and  C_7 
REMARK    4  A    between atoms: C_7  and  N_16 
REMARK    5  A    between atoms: S_8  and  C_9 
REMARK    6  A    between atoms: C_9  and  C_10 
REMARK    7  A    between atoms: N_16  and  C_18 
REMARK    8  A    between atoms: C_18  and  C_19 
REMARK    9  A    between atoms: C_19  and  N_20 
ROOT
HETATM    1  C           1     175.645 185.739 272.052  0.00  0.00     0.130 A 
HETATM    2  C           1     175.932 186.843 272.839  0.00  0.00    -0.005 A 
HETATM    3  N           1     175.193 185.819 270.782  0.00  0.00    -0.253 NA
HETATM    4  C           1     175.022 187.060 270.277  0.00  0.00     0.101 A 
HETATM    5  C           1     175.282 188.223 270.984  0.00  0.00     0.006 A 
HETATM    6  C           1     175.747 188.109 272.291  0.00  0.00     0.025 A 
ENDROOT
BRANCH   5   7
HETATM    7  C           1     175.070 189.567 270.359  0.00  0.00     0.311 C 
BRANCH   7   8
HETATM    8  N           1     176.150 190.443 270.726  0.00  0.00     0.089 N 
HETATM    9  H           1     176.463 190.219 271.671  0.00  0.00     0.316 HD
BRANCH   8  10
HETATM   10  C           1     175.650 191.790 270.693  0.00  0.00     0.300 C 
BRANCH  10  11
HETATM   11  C           1     174.130 191.770 270.796  0.00  0.00     0.302 C 
BRANCH  11  12
HETATM   12  N           1     173.721 192.436 272.003  0.00  0.00     0.093 N 
HETATM   13  C           1     173.507 191.392 273.019  0.00  0.00     0.302 C 
HETATM   14  C           1     173.311 191.963 274.440  0.00  0.00     0.302 C 
HETATM   15  N           1     174.417 192.838 274.865  0.00  0.00     0.087 N 
HETATM   16  C           1     173.997 193.487 276.077  0.00  0.00     0.310 C 
HETATM   17  C           1     174.633 193.883 273.848  0.00  0.00     0.302 C 
HETATM   18  C           1     174.828 193.312 272.428  0.00  0.00     0.302 C 
ENDBRANCH  11  12
ENDBRANCH  10  11
ENDBRANCH   8  10
ENDBRANCH   7   8
ENDBRANCH   5   7
BRANCH   4  19
HETATM   19  S           1     174.417 187.214 268.572  0.00  0.00    -0.105 SA
BRANCH  19  20
HETATM   20  C           1     174.196 185.425 268.355  0.00  0.00     0.119 C 
BRANCH  20  21
HETATM   21  C           1     175.122 184.934 267.287  0.00  0.00    -0.049 A 
HETATM   22  C           1     176.295 184.263 267.635  0.00  0.00     0.008 A 
HETATM   23  C           1     177.157 183.805 266.639  0.00  0.00     0.001 A 
HETATM   24  C           1     176.848 184.018 265.296  0.00  0.00     0.000 A 
HETATM   25  C           1     175.676 184.689 264.948  0.00  0.00     0.001 A 
HETATM   26  C           1     174.813 185.148 265.943  0.00  0.00     0.008 A 
ENDBRANCH  20  21
ENDBRANCH  19  20
ENDBRANCH   4  19
BRANCH   2  27
HETATM   27  C           1     176.377 186.698 274.091  0.00  0.00     0.014 A 
HETATM   28  C           1     177.702 186.324 274.321  0.00  0.00     0.018 A 
HETATM   29  C           1     178.166 186.171 275.628  0.00  0.00     0.043 A 
HETATM   30  C           1     177.307 186.391 276.703  0.00  0.00     0.119 A 
HETATM   31  F           1     177.747 186.247 277.939  0.00  0.00    -0.206 F 
HETATM   32  C           1     175.983 186.765 276.474  0.00  0.00     0.085 A 
HETATM   33  C           1     175.518 186.918 275.167  0.00  0.00     0.130 A 
HETATM   34  F           1     174.266 187.272 274.950  0.00  0.00    -0.205 F 
ENDBRANCH   2  27
TORSDOF 9
ENDMDL
MODEL 7
REMARK VINA RESULT:      -7.7      4.661      8.269
REMARK  9 active torsions:
REMARK  status: ('A' for Active; 'I' for Inactive)
REMARK    1  A    between atoms: C_2  and  C_17 
REMARK    2  A    between atoms: C_4  and  S_8 
REMARK    3  A    between atoms: C_5  and  C_7 
REMARK    4  A    between atoms: C_7  and  N_16 
REMARK    5  A    between atoms: S_8  and  C_9 
REMARK    6  A    between atoms: C_9  and  C_10 
REMARK    7  A    between atoms: N_16  and  C_18 
REMARK    8  A    between atoms: C_18  and  C_19 
REMARK    9  A    between atoms: C_19  and  N_20 
ROOT
HETATM    1  C           1     170.639 188.185 288.762  0.00  0.00     0.130 A 
HETATM    2  C           1     171.104 187.155 289.565  0.00  0.00    -0.005 A 
HETATM    3  N           1     170.942 188.313 287.452  0.00  0.00    -0.253 NA
HETATM    4  C           1     171.746 187.366 286.922  0.00  0.00     0.101 A 
HETATM    5  C           1     172.259 186.299 287.642  0.00  0.00     0.006 A 
HETATM    6  C           1     171.930 186.194 288.989  0.00  0.00     0.025 A 
ENDROOT
BRANCH   5   7
HETATM    7  C           1     173.145 185.285 286.987  0.00  0.00     0.311 C 
BRANCH   7   8
HETATM    8  N           1     174.516 185.552 287.331  0.00  0.00     0.089 N 
HETATM    9  H           1     174.599 186.506 287.682  0.00  0.00     0.316 HD
BRANCH   8  10
HETATM   10  C           1     175.301 185.412 286.134  0.00  0.00     0.300 C 
BRANCH  10  11
HETATM   11  C           1     174.625 184.419 285.197  0.00  0.00     0.302 C 
BRANCH  11  12
HETATM   12  N           1     174.932 184.759 283.834  0.00  0.00     0.093 N 
HETATM   13  C           1     173.648 184.938 283.135  0.00  0.00     0.302 C 
HETATM   14  C           1     173.807 185.553 281.728  0.00  0.00     0.302 C 
HETATM   15  N           1     174.540 186.832 281.740  0.00  0.00     0.087 N 
HETATM   16  C           1     174.829 187.162 280.371  0.00  0.00     0.310 C 
HETATM   17  C           1     175.825 186.654 282.440  0.00  0.00     0.302 C 
HETATM   18  C           1     175.665 186.038 283.846  0.00  0.00     0.302 C 
ENDBRANCH  11  12
ENDBRANCH  10  11
ENDBRANCH   8  10
ENDBRANCH   7   8
ENDBRANCH   5   7
BRANCH   4  19
HETATM   19  S           1     172.179 187.498 285.164  0.00  0.00    -0.105 SA
BRANCH  19  20
HETATM   20  C           1     170.844 188.671 284.793  0.00  0.00     0.119 C 
BRANCH  20  21
HETATM   21  C           1     171.250 189.545 283.649  0.00  0.00    -0.049 A 
HETATM   22  C           1     170.380 190.529 283.178  0.00  0.00     0.008 A 
HETATM   23  C           1     170.760 191.344 282.113  0.00  0.00     0.001 A 
HETATM   24  C           1     172.010 191.176 281.516  0.00  0.00     0.000 A 
HETATM   25  C           1     172.880 190.192 281.987  0.00  0.00     0.001 A 
HETATM   26  C           1     172.501 189.377 283.053  0.00  0.00     0.008 A 
ENDBRANCH  20  21
ENDBRANCH  19  20
ENDBRANCH   4  19
BRANCH   2  27
HETATM   27  C           1     170.767 187.085 290.856  0.00  0.00     0.014 A 
HETATM   28  C           1     171.664 187.513 291.835  0.00  0.00     0.018 A 
HETATM   29  C           1     171.313 187.439 293.183  0.00  0.00     0.043 A 
HETATM   30  C           1     170.066 186.937 293.552  0.00  0.00     0.119 A 
HETATM   31  F           1     169.734 186.867 294.828  0.00  0.00    -0.206 F 
HETATM   32  C           1     169.168 186.508 292.574  0.00  0.00     0.085 A 
HETATM   33  C           1     169.519 186.583 291.226  0.00  0.00     0.130 A 
HETATM   34  F           1     168.670 186.177 290.300  0.00  0.00    -0.205 F 
ENDBRANCH   2  27
TORSDOF 9
ENDMDL
MODEL 8
REMARK VINA RESULT:      -7.6      5.978     11.964
REMARK  9 active torsions:
REMARK  status: ('A' for Active; 'I' for Inactive)
REMARK    1  A    between atoms: C_2  and  C_17 
REMARK    2  A    between atoms: C_4  and  S_8 
REMARK    3  A    between atoms: C_5  and  C_7 
REMARK    4  A    between atoms: C_7  and  N_16 
REMARK    5  A    between atoms: S_8  and  C_9 
REMARK    6  A    between atoms: C_9  and  C_10 
REMARK    7  A    between atoms: N_16  and  C_18 
REMARK    8  A    between atoms: C_18  and  C_19 
REMARK    9  A    between atoms: C_19  and  N_20 
ROOT
HETATM    1  C           1     176.101 184.853 271.703  0.00  0.00     0.130 A 
HETATM    2  C           1     175.630 185.664 272.723  0.00  0.00    -0.005 A 
HETATM    3  N           1     175.489 184.717 270.506  0.00  0.00    -0.253 NA
HETATM    4  C           1     174.355 185.428 270.323  0.00  0.00     0.101 A 
HETATM    5  C           1     173.806 186.265 271.281  0.00  0.00     0.006 A 
HETATM    6  C           1     174.459 186.383 272.504  0.00  0.00     0.025 A 
ENDROOT
BRANCH   5   7
HETATM    7  C           1     172.544 187.023 271.008  0.00  0.00     0.311 C 
BRANCH   7   8
HETATM    8  N           1     171.542 186.649 271.970  0.00  0.00     0.089 N 
HETATM    9  H           1     170.652 186.503 271.495  0.00  0.00     0.316 HD
BRANCH   8  10
HETATM   10  C           1     171.413 187.731 272.909  0.00  0.00     0.300 C 
BRANCH  10  11
HETATM   11  C           1     170.320 187.401 273.917  0.00  0.00     0.302 C 
BRANCH  11  12
HETATM   12  N           1     170.823 187.595 275.250  0.00  0.00     0.093 N 
HETATM   13  C           1     169.865 186.956 276.168  0.00  0.00     0.302 C 
HETATM   14  C           1     170.390 186.856 277.616  0.00  0.00     0.302 C 
HETATM   15  N           1     171.690 186.169 277.709  0.00  0.00     0.087 N 
HETATM   16  C           1     172.172 186.363 279.050  0.00  0.00     0.310 C 
HETATM   17  C           1     172.649 186.808 276.791  0.00  0.00     0.302 C 
HETATM   18  C           1     172.123 186.908 275.344  0.00  0.00     0.302 C 
ENDBRANCH  11  12
ENDBRANCH  10  11
ENDBRANCH   8  10
ENDBRANCH   7   8
ENDBRANCH   5   7
BRANCH   4  19
HETATM   19  S           1     173.499 185.276 268.729  0.00  0.00    -0.105 SA
BRANCH  19  20
HETATM   20  C           1     174.681 186.337 267.850  0.00  0.00     0.119 C 
BRANCH  20  21
HETATM   21  C           1     174.126 187.722 267.742  0.00  0.00    -0.049 A 
HETATM   22  C           1     172.831 187.919 267.263  0.00  0.00     0.008 A 
HETATM   23  C           1     172.314 189.210 267.164  0.00  0.00     0.001 A 
HETATM   24  C           1     173.091 190.305 267.543  0.00  0.00     0.000 A 
HETATM   25  C           1     174.386 190.108 268.022  0.00  0.00     0.001 A 
HETATM   26  C           1     174.904 188.817 268.122  0.00  0.00     0.008 A 
ENDBRANCH  20  21
ENDBRANCH  19  20
ENDBRANCH   4  19
BRANCH   2  27
HETATM   27  C           1     176.283 185.755 273.885  0.00  0.00     0.014 A 
HETATM   28  C           1     177.521 186.397 273.942  0.00  0.00     0.018 A 
HETATM   29  C           1     178.203 186.491 275.155  0.00  0.00     0.043 A 
HETATM   30  C           1     177.648 185.944 276.311  0.00  0.00     0.119 A 
HETATM   31  F           1     178.294 186.033 277.459  0.00  0.00    -0.206 F 
HETATM   32  C           1     176.411 185.302 276.255  0.00  0.00     0.085 A 
HETATM   33  C           1     175.729 185.208 275.042  0.00  0.00     0.130 A 
HETATM   34  F           1     174.558 184.600 274.989  0.00  0.00    -0.205 F 
ENDBRANCH   2  27
TORSDOF 9
ENDMDL
MODEL 9
REMARK VINA RESULT:      -7.6      9.111     13.841
REMARK  9 active torsions:
REMARK  status: ('A' for Active; 'I' for Inactive)
REMARK    1  A    between atoms: C_2  and  C_17 
REMARK    2  A    between atoms: C_4  and  S_8 
REMARK    3  A    between atoms: C_5  and  C_7 
REMARK    4  A    between atoms: C_7  and  N_16 
REMARK    5  A    between atoms: S_8  and  C_9 
REMARK    6  A    between atoms: C_9  and  C_10 
REMARK    7  A    between atoms: N_16  and  C_18 
REMARK    8  A    between atoms: C_18  and  C_19 
REMARK    9  A    between atoms: C_19  and  N_20 
ROOT
HETATM    1  C           1     176.416 183.655 269.555  0.00  0.00     0.130 A 
HETATM    2  C           1     176.001 183.891 268.254  0.00  0.00    -0.005 A 
HETATM    3  N           1     176.174 184.495 270.585  0.00  0.00    -0.253 NA
HETATM    4  C           1     175.485 185.621 270.297  0.00  0.00     0.101 A 
HETATM    5  C           1     175.028 185.944 269.029  0.00  0.00     0.006 A 
HETATM    6  C           1     175.293 185.059 267.990  0.00  0.00     0.025 A 
ENDROOT
BRANCH   5   7
HETATM    7  C           1     174.270 187.212 268.785  0.00  0.00     0.311 C 
BRANCH   7   8
HETATM    8  N           1     174.815 187.884 267.636  0.00  0.00     0.089 N 
HETATM    9  H           1     175.808 187.664 267.554  0.00  0.00     0.316 HD
BRANCH   8  10
HETATM   10  C           1     174.652 189.298 267.840  0.00  0.00     0.300 C 
BRANCH  10  11
HETATM   11  C           1     175.261 189.691 269.180  0.00  0.00     0.302 C 
BRANCH  11  12
HETATM   12  N           1     174.756 190.977 269.578  0.00  0.00     0.093 N 
HETATM   13  C           1     173.377 190.769 270.055  0.00  0.00     0.302 C 
HETATM   14  C           1     172.786 192.012 270.753  0.00  0.00     0.302 C 
HETATM   15  N           1     173.621 192.496 271.867  0.00  0.00     0.087 N 
HETATM   16  C           1     173.096 193.777 272.259  0.00  0.00     0.310 C 
HETATM   17  C           1     175.000 192.705 271.391  0.00  0.00     0.302 C 
HETATM   18  C           1     175.590 191.461 270.691  0.00  0.00     0.302 C 
ENDBRANCH  11  12
ENDBRANCH  10  11
ENDBRANCH   8  10
ENDBRANCH   7   8
ENDBRANCH   5   7
BRANCH   4  19
HETATM   19  S           1     175.136 186.779 271.652  0.00  0.00    -0.105 SA
BRANCH  19  20
HETATM   20  C           1     174.848 185.465 272.870  0.00  0.00     0.119 C 
BRANCH  20  21
HETATM   21  C           1     175.849 185.580 273.976  0.00  0.00    -0.049 A 
HETATM   22  C           1     177.054 186.249 273.759  0.00  0.00     0.008 A 
HETATM   23  C           1     177.987 186.357 274.790  0.00  0.00     0.001 A 
HETATM   24  C           1     177.717 185.795 276.037  0.00  0.00     0.000 A 
HETATM   25  C           1     176.512 185.126 276.254  0.00  0.00     0.001 A 
HETATM   26  C           1     175.579 185.017 275.224  0.00  0.00     0.008 A 
ENDBRANCH  20  21
ENDBRANCH  19  20
ENDBRANCH   4  19
BRANCH   2  27
HETATM   27  C           1     176.273 183.019 267.278  0.00  0.00     0.014 A 
HETATM   28  C           1     177.237 183.325 266.317  0.00  0.00     0.018 A 
HETATM   29  C           1     177.520 182.415 265.298  0.00  0.00     0.043 A 
HETATM   30  C           1     176.839 181.200 265.239  0.00  0.00     0.119 A 
HETATM   31  F           1     177.108 180.340 264.275  0.00  0.00    -0.206 F 
HETATM   32  C           1     175.876 180.893 266.200  0.00  0.00     0.085 A 
HETATM   33  C           1     175.593 181.803 267.219  0.00  0.00     0.130 A 
HETATM   34  F           1     174.681 181.512 268.128  0.00  0.00    -0.205 F 
ENDBRANCH   2  27
TORSDOF 9
ENDMDL
