MODEL 1
REMARK VINA RESULT:      -7.9      0.000      0.000
REMARK  9 active torsions:
REMARK  status: ('A' for Active; 'I' for Inactive)
REMARK    1  A    between atoms: C2_2  and  N1_3 
REMARK    2  A    between atoms: C7_8  and  C8_9 
REMARK    3  A    between atoms: C8_9  and  C9_10 
REMARK    4  A    between atoms: C9_10  and  N2_11 
REMARK    5  A    between atoms: N2_11  and  C10_12 
REMARK    6  A    between atoms: C10_12  and  C11_13 
REMARK    7  A    between atoms: C19_23  and  S1_24 
REMARK    8  A    between atoms: S1_24  and  C20_25 
REMARK    9  A    between atoms: C20_25  and  C21_26 
ROOT
HETATM    1  C11 UNL     1     173.082 187.361 280.905  1.00  0.00     0.006 A 
HETATM    2  C12 UNL     1     172.998 188.460 281.773  1.00  0.00     0.025 A 
HETATM    3  C13 UNL     1     172.041 189.459 281.561  1.00  0.00    -0.005 A 
HETATM    4  C14 UNL     1     171.927 190.555 282.428  1.00  0.00     0.032 A 
HETATM    5  C15 UNL     1     170.949 191.531 282.200  1.00  0.00     0.011 A 
HETATM    6 BR1  UNL     1     170.785 193.015 283.390  1.00  0.00    -0.051 Br
HETATM    7  C16 UNL     1     170.086 191.416 281.104  1.00  0.00     0.021 A 
HETATM    8  C17 UNL     1     170.199 190.329 280.233  1.00  0.00     0.034 A 
HETATM    9  C18 UNL     1     171.171 189.348 280.457  1.00  0.00     0.068 A 
HETATM   10  N3  UNL     1     171.271 188.282 279.622  1.00  0.00    -0.241 NA
HETATM   11  C19 UNL     1     172.189 187.296 279.809  1.00  0.00     0.102 A 
ENDROOT
BRANCH   1  12
HETATM   12  C10 UNL     1     174.105 186.290 281.196  1.00  0.00     0.311 C 
BRANCH  12  13
HETATM   13  N2  UNL     1     173.452 185.167 281.874  1.00  0.00     0.087 N 
HETATM   14  H19 UNL     1     173.344 184.359 281.227  1.00  0.00     0.316 HD
BRANCH  13  15
HETATM   15  C9  UNL     1     174.110 184.765 283.126  1.00  0.00     0.270 C 
BRANCH  15  16
HETATM   16  C8  UNL     1     174.161 185.848 284.239  1.00  0.00     0.034 C 
BRANCH  16  17
HETATM   17  C7  UNL     1     172.880 186.108 285.082  1.00  0.00    -0.010 C 
HETATM   18  C4  UNL     1     172.862 187.498 285.757  1.00  0.00     0.035 C 
HETATM   19  C3  UNL     1     171.859 187.530 286.919  1.00  0.00     0.272 C 
HETATM   20  N1  UNL     1     172.174 186.538 287.980  1.00  0.00     0.088 N 
HETATM   21  C5  UNL     1     172.855 185.308 287.503  1.00  0.00     0.272 C 
HETATM   22  C6  UNL     1     172.498 184.964 286.052  1.00  0.00     0.035 C 
BRANCH  20  23
HETATM   23  C2  UNL     1     172.898 187.145 289.119  1.00  0.00     0.268 C 
HETATM   24  C1  UNL     1     173.890 186.147 289.707  1.00  0.00     0.037 C 
ENDBRANCH  20  23
ENDBRANCH  16  17
ENDBRANCH  15  16
ENDBRANCH  13  15
ENDBRANCH  12  13
ENDBRANCH   1  12
BRANCH  11  25
HETATM   25  S1  UNL     1     172.183 185.919 278.654  1.00  0.00    -0.105 SA
BRANCH  25  26
HETATM   26  C20 UNL     1     172.784 186.921 277.256  1.00  0.00     0.119 C 
BRANCH  26  27
HETATM   27  C21 UNL     1     174.108 186.392 276.788  1.00  0.00    -0.049 A 
HETATM   28  C22 UNL     1     174.162 185.437 275.759  1.00  0.00     0.008 A 
HETATM   29  C23 UNL     1     175.392 184.925 275.334  1.00  0.00     0.001 A 
HETATM   30  C24 UNL     1     176.577 185.366 275.928  1.00  0.00     0.000 A 
HETATM   31  C25 UNL     1     176.535 186.328 276.942  1.00  0.00     0.001 A 
HETATM   32  C26 UNL     1     175.305 186.835 277.376  1.00  0.00     0.008 A 
ENDBRANCH  26  27
ENDBRANCH  25  26
ENDBRANCH  11  25
TORSDOF 9
ENDMDL
MODEL 2
REMARK VINA RESULT:      -7.6      2.174      3.089
REMARK  9 active torsions:
REMARK  status: ('A' for Active; 'I' for Inactive)
REMARK    1  A    between atoms: C2_2  and  N1_3 
REMARK    2  A    between atoms: C7_8  and  C8_9 
REMARK    3  A    between atoms: C8_9  and  C9_10 
REMARK    4  A    between atoms: C9_10  and  N2_11 
REMARK    5  A    between atoms: N2_11  and  C10_12 
REMARK    6  A    between atoms: C10_12  and  C11_13 
REMARK    7  A    between atoms: C19_23  and  S1_24 
REMARK    8  A    between atoms: S1_24  and  C20_25 
REMARK    9  A    between atoms: C20_25  and  C21_26 
ROOT
HETATM    1  C11 UNL     1     173.273 186.614 283.780  1.00  0.00     0.006 A 
HETATM    2  C12 UNL     1     172.208 187.235 284.451  1.00  0.00     0.025 A 
HETATM    3  C13 UNL     1     171.646 188.413 283.948  1.00  0.00    -0.005 A 
HETATM    4  C14 UNL     1     170.569 189.039 284.592  1.00  0.00     0.032 A 
HETATM    5  C15 UNL     1     170.016 190.209 284.057  1.00  0.00     0.011 A 
HETATM    6 BR1  UNL     1     168.539 191.052 284.926  1.00  0.00    -0.051 Br
HETATM    7  C16 UNL     1     170.540 190.758 282.881  1.00  0.00     0.021 A 
HETATM    8  C17 UNL     1     171.617 190.142 282.238  1.00  0.00     0.034 A 
HETATM    9  C18 UNL     1     172.172 188.971 282.765  1.00  0.00     0.068 A 
HETATM   10  N3  UNL     1     173.208 188.361 282.132  1.00  0.00    -0.241 NA
HETATM   11  C19 UNL     1     173.769 187.213 282.598  1.00  0.00     0.102 A 
ENDROOT
BRANCH   1  12
HETATM   12  C10 UNL     1     173.822 185.323 284.340  1.00  0.00     0.311 C 
BRANCH  12  13
HETATM   13  N2  UNL     1     175.047 185.604 285.094  1.00  0.00     0.087 N 
HETATM   14  H19 UNL     1     175.250 186.625 285.099  1.00  0.00     0.316 HD
BRANCH  13  15
HETATM   15  C9  UNL     1     175.046 185.051 286.456  1.00  0.00     0.270 C 
BRANCH  15  16
HETATM   16  C8  UNL     1     173.648 184.863 287.108  1.00  0.00     0.034 C 
BRANCH  16  17
HETATM   17  C7  UNL     1     173.039 186.047 287.913  1.00  0.00    -0.010 C 
HETATM   18  C4  UNL     1     173.664 186.221 289.315  1.00  0.00     0.035 C 
HETATM   19  C3  UNL     1     172.747 187.050 290.224  1.00  0.00     0.272 C 
HETATM   20  N1  UNL     1     171.412 186.426 290.421  1.00  0.00     0.088 N 
HETATM   21  C5  UNL     1     170.932 185.607 289.280  1.00  0.00     0.272 C 
HETATM   22  C6  UNL     1     171.491 186.088 287.935  1.00  0.00     0.035 C 
BRANCH  20  23
HETATM   23  C2  UNL     1     171.325 185.677 291.694  1.00  0.00     0.268 C 
HETATM   24  C1  UNL     1     171.946 186.488 292.827  1.00  0.00     0.037 C 
ENDBRANCH  20  23
ENDBRANCH  16  17
ENDBRANCH  15  16
ENDBRANCH  13  15
ENDBRANCH  12  13
ENDBRANCH   1  12
BRANCH  11  25
HETATM   25  S1  UNL     1     175.105 186.487 281.638  1.00  0.00    -0.105 SA
BRANCH  25  26
HETATM   26  C20 UNL     1     174.887 187.627 280.234  1.00  0.00     0.119 C 
BRANCH  26  27
HETATM   27  C21 UNL     1     174.315 186.882 279.063  1.00  0.00    -0.049 A 
HETATM   28  C22 UNL     1     173.108 186.176 279.197  1.00  0.00     0.008 A 
HETATM   29  C23 UNL     1     172.582 185.463 278.115  1.00  0.00     0.001 A 
HETATM   30  C24 UNL     1     173.253 185.454 276.891  1.00  0.00     0.000 A 
HETATM   31  C25 UNL     1     174.447 186.166 276.742  1.00  0.00     0.001 A 
HETATM   32  C26 UNL     1     174.981 186.873 277.825  1.00  0.00     0.008 A 
ENDBRANCH  26  27
ENDBRANCH  25  26
ENDBRANCH  11  25
TORSDOF 9
ENDMDL
MODEL 3
REMARK VINA RESULT:      -7.4      8.264     12.569
REMARK  9 active torsions:
REMARK  status: ('A' for Active; 'I' for Inactive)
REMARK    1  A    between atoms: C2_2  and  N1_3 
REMARK    2  A    between atoms: C7_8  and  C8_9 
REMARK    3  A    between atoms: C8_9  and  C9_10 
REMARK    4  A    between atoms: C9_10  and  N2_11 
REMARK    5  A    between atoms: N2_11  and  C10_12 
REMARK    6  A    between atoms: C10_12  and  C11_13 
REMARK    7  A    between atoms: C19_23  and  S1_24 
REMARK    8  A    between atoms: S1_24  and  C20_25 
REMARK    9  A    between atoms: C20_25  and  C21_26 
ROOT
HETATM    1  C11 UNL     1     173.914 189.082 267.910  1.00  0.00     0.006 A 
HETATM    2  C12 UNL     1     173.098 190.223 267.924  1.00  0.00     0.025 A 
HETATM    3  C13 UNL     1     171.861 190.217 267.270  1.00  0.00    -0.005 A 
HETATM    4  C14 UNL     1     171.022 191.341 267.289  1.00  0.00     0.032 A 
HETATM    5  C15 UNL     1     169.782 191.301 266.639  1.00  0.00     0.011 A 
HETATM    6 BR1  UNL     1     168.634 192.826 266.678  1.00  0.00    -0.051 Br
HETATM    7  C16 UNL     1     169.381 190.142 265.966  1.00  0.00     0.021 A 
HETATM    8  C17 UNL     1     170.216 189.021 265.938  1.00  0.00     0.034 A 
HETATM    9  C18 UNL     1     171.454 189.053 266.589  1.00  0.00     0.068 A 
HETATM   10  N3  UNL     1     172.259 187.959 266.579  1.00  0.00    -0.241 NA
HETATM   11  C19 UNL     1     173.463 187.937 267.210  1.00  0.00     0.102 A 
ENDROOT
BRANCH   1  12
HETATM   12  C10 UNL     1     175.223 189.122 268.662  1.00  0.00     0.311 C 
BRANCH  12  13
HETATM   13  N2  UNL     1     175.048 189.888 269.899  1.00  0.00     0.087 N 
HETATM   14  H19 UNL     1     174.382 190.674 269.754  1.00  0.00     0.316 HD
BRANCH  13  15
HETATM   15  C9  UNL     1     174.663 189.066 271.056  1.00  0.00     0.270 C 
BRANCH  15  16
HETATM   16  C8  UNL     1     175.797 188.206 271.680  1.00  0.00     0.034 C 
BRANCH  16  17
HETATM   17  C7  UNL     1     175.467 186.752 272.124  1.00  0.00    -0.010 C 
HETATM   18  C4  UNL     1     174.098 186.622 272.831  1.00  0.00     0.035 C 
HETATM   19  C3  UNL     1     174.026 185.326 273.649  1.00  0.00     0.272 C 
HETATM   20  N1  UNL     1     175.067 185.253 274.708  1.00  0.00     0.088 N 
HETATM   21  C5  UNL     1     176.330 185.967 274.392  1.00  0.00     0.272 C 
HETATM   22  C6  UNL     1     176.607 186.031 272.885  1.00  0.00     0.035 C 
BRANCH  20  23
HETATM   23  C2  UNL     1     174.546 185.646 276.036  1.00  0.00     0.268 C 
HETATM   24  C1  UNL     1     175.554 186.537 276.756  1.00  0.00     0.037 C 
ENDBRANCH  20  23
ENDBRANCH  16  17
ENDBRANCH  15  16
ENDBRANCH  13  15
ENDBRANCH  12  13
ENDBRANCH   1  12
BRANCH  11  25
HETATM   25  S1  UNL     1     174.408 186.409 267.154  1.00  0.00    -0.105 SA
BRANCH  25  26
HETATM   26  C20 UNL     1     173.644 185.730 268.663  1.00  0.00     0.119 C 
BRANCH  26  27
HETATM   27  C21 UNL     1     174.604 184.793 269.337  1.00  0.00    -0.049 A 
HETATM   28  C22 UNL     1     175.976 184.856 269.041  1.00  0.00     0.008 A 
HETATM   29  C23 UNL     1     176.872 183.971 269.650  1.00  0.00     0.001 A 
HETATM   30  C24 UNL     1     176.406 183.023 270.564  1.00  0.00     0.000 A 
HETATM   31  C25 UNL     1     175.045 182.964 270.878  1.00  0.00     0.001 A 
HETATM   32  C26 UNL     1     174.145 183.841 270.262  1.00  0.00     0.008 A 
ENDBRANCH  26  27
ENDBRANCH  25  26
ENDBRANCH  11  25
TORSDOF 9
ENDMDL
MODEL 4
REMARK VINA RESULT:      -7.4      9.579     14.600
REMARK  9 active torsions:
REMARK  status: ('A' for Active; 'I' for Inactive)
REMARK    1  A    between atoms: C2_2  and  N1_3 
REMARK    2  A    between atoms: C7_8  and  C8_9 
REMARK    3  A    between atoms: C8_9  and  C9_10 
REMARK    4  A    between atoms: C9_10  and  N2_11 
REMARK    5  A    between atoms: N2_11  and  C10_12 
REMARK    6  A    between atoms: C10_12  and  C11_13 
REMARK    7  A    between atoms: C19_23  and  S1_24 
REMARK    8  A    between atoms: S1_24  and  C20_25 
REMARK    9  A    between atoms: C20_25  and  C21_26 
ROOT
HETATM    1  C11 UNL     1     175.468 183.121 267.727  1.00  0.00     0.006 A 
HETATM    2  C12 UNL     1     176.380 182.407 266.935  1.00  0.00     0.025 A 
HETATM    3  C13 UNL     1     176.659 182.820 265.628  1.00  0.00    -0.005 A 
HETATM    4  C14 UNL     1     177.582 182.132 264.828  1.00  0.00     0.032 A 
HETATM    5  C15 UNL     1     177.853 182.578 263.528  1.00  0.00     0.011 A 
HETATM    6 BR1  UNL     1     179.121 181.650 262.444  1.00  0.00    -0.051 Br
HETATM    7  C16 UNL     1     177.201 183.709 263.025  1.00  0.00     0.021 A 
HETATM    8  C17 UNL     1     176.275 184.396 263.816  1.00  0.00     0.034 A 
HETATM    9  C18 UNL     1     176.003 183.958 265.117  1.00  0.00     0.068 A 
HETATM   10  N3  UNL     1     175.117 184.634 265.894  1.00  0.00    -0.241 NA
HETATM   11  C19 UNL     1     174.832 184.255 267.168  1.00  0.00     0.102 A 
ENDROOT
BRANCH   1  12
HETATM   12  C10 UNL     1     175.228 182.659 269.144  1.00  0.00     0.311 C 
BRANCH  12  13
HETATM   13  N2  UNL     1     176.415 182.944 269.955  1.00  0.00     0.087 N 
HETATM   14  H19 UNL     1     177.272 182.947 269.365  1.00  0.00     0.316 HD
BRANCH  13  15
HETATM   15  C9  UNL     1     176.308 184.176 270.751  1.00  0.00     0.270 C 
BRANCH  15  16
HETATM   16  C8  UNL     1     175.308 184.128 271.940  1.00  0.00     0.034 C 
BRANCH  16  17
HETATM   17  C7  UNL     1     174.999 185.446 272.704  1.00  0.00    -0.010 C 
HETATM   18  C4  UNL     1     176.222 186.384 272.829  1.00  0.00     0.035 C 
HETATM   19  C3  UNL     1     176.017 187.404 273.956  1.00  0.00     0.272 C 
HETATM   20  N1  UNL     1     175.825 186.766 275.285  1.00  0.00     0.088 N 
HETATM   21  C5  UNL     1     175.184 185.428 275.248  1.00  0.00     0.272 C 
HETATM   22  C6  UNL     1     174.247 185.258 274.045  1.00  0.00     0.035 C 
BRANCH  20  23
HETATM   23  C2  UNL     1     177.072 186.741 276.081  1.00  0.00     0.268 C 
HETATM   24  C1  UNL     1     177.508 185.301 276.334  1.00  0.00     0.037 C 
ENDBRANCH  20  23
ENDBRANCH  16  17
ENDBRANCH  15  16
ENDBRANCH  13  15
ENDBRANCH  12  13
ENDBRANCH   1  12
BRANCH  11  25
HETATM   25  S1  UNL     1     173.673 185.265 268.100  1.00  0.00    -0.105 SA
BRANCH  25  26
HETATM   26  C20 UNL     1     173.162 186.244 266.651  1.00  0.00     0.119 C 
BRANCH  26  27
HETATM   27  C21 UNL     1     173.101 187.698 267.020  1.00  0.00    -0.049 A 
HETATM   28  C22 UNL     1     171.936 188.441 266.768  1.00  0.00     0.008 A 
HETATM   29  C23 UNL     1     171.882 189.801 267.090  1.00  0.00     0.001 A 
HETATM   30  C24 UNL     1     172.986 190.427 267.672  1.00  0.00     0.000 A 
HETATM   31  C25 UNL     1     174.145 189.692 267.942  1.00  0.00     0.001 A 
HETATM   32  C26 UNL     1     174.206 188.334 267.612  1.00  0.00     0.008 A 
ENDBRANCH  26  27
ENDBRANCH  25  26
ENDBRANCH  11  25
TORSDOF 9
ENDMDL
MODEL 5
REMARK VINA RESULT:      -7.4      9.097     13.408
REMARK  9 active torsions:
REMARK  status: ('A' for Active; 'I' for Inactive)
REMARK    1  A    between atoms: C2_2  and  N1_3 
REMARK    2  A    between atoms: C7_8  and  C8_9 
REMARK    3  A    between atoms: C8_9  and  C9_10 
REMARK    4  A    between atoms: C9_10  and  N2_11 
REMARK    5  A    between atoms: N2_11  and  C10_12 
REMARK    6  A    between atoms: C10_12  and  C11_13 
REMARK    7  A    between atoms: C19_23  and  S1_24 
REMARK    8  A    between atoms: S1_24  and  C20_25 
REMARK    9  A    between atoms: C20_25  and  C21_26 
ROOT
HETATM    1  C11 UNL     1     175.482 185.331 268.005  1.00  0.00     0.006 A 
HETATM    2  C12 UNL     1     175.508 186.423 268.885  1.00  0.00     0.025 A 
HETATM    3  C13 UNL     1     174.740 187.563 268.623  1.00  0.00    -0.005 A 
HETATM    4  C14 UNL     1     174.738 188.656 269.500  1.00  0.00     0.032 A 
HETATM    5  C15 UNL     1     173.946 189.778 269.219  1.00  0.00     0.011 A 
HETATM    6 BR1  UNL     1     173.931 191.261 270.422  1.00  0.00    -0.051 Br
HETATM    7  C16 UNL     1     173.161 189.810 268.062  1.00  0.00     0.021 A 
HETATM    8  C17 UNL     1     173.165 188.725 267.181  1.00  0.00     0.034 A 
HETATM    9  C18 UNL     1     173.950 187.600 267.457  1.00  0.00     0.068 A 
HETATM   10  N3  UNL     1     173.941 186.537 266.611  1.00  0.00    -0.241 NA
HETATM   11  C19 UNL     1     174.675 185.416 266.846  1.00  0.00     0.102 A 
ENDROOT
BRANCH   1  12
HETATM   12  C10 UNL     1     176.298 184.107 268.350  1.00  0.00     0.311 C 
BRANCH  12  13
HETATM   13  N2  UNL     1     175.492 183.204 269.175  1.00  0.00     0.087 N 
HETATM   14  H19 UNL     1     175.357 182.290 268.697  1.00  0.00     0.316 HD
BRANCH  13  15
HETATM   15  C9  UNL     1     176.011 183.023 270.539  1.00  0.00     0.270 C 
BRANCH  15  16
HETATM   16  C8  UNL     1     175.043 183.419 271.688  1.00  0.00     0.034 C 
BRANCH  16  17
HETATM   17  C7  UNL     1     175.061 184.887 272.201  1.00  0.00    -0.010 C 
HETATM   18  C4  UNL     1     176.457 185.545 272.130  1.00  0.00     0.035 C 
HETATM   19  C3  UNL     1     176.534 186.768 273.053  1.00  0.00     0.272 C 
HETATM   20  N1  UNL     1     176.288 186.431 274.480  1.00  0.00     0.088 N 
HETATM   21  C5  UNL     1     175.380 185.278 274.701  1.00  0.00     0.272 C 
HETATM   22  C6  UNL     1     174.363 185.105 273.567  1.00  0.00     0.035 C 
BRANCH  20  23
HETATM   23  C2  UNL     1     177.546 186.278 275.245  1.00  0.00     0.268 C 
HETATM   24  C1  UNL     1     177.374 185.230 276.339  1.00  0.00     0.037 C 
ENDBRANCH  20  23
ENDBRANCH  16  17
ENDBRANCH  15  16
ENDBRANCH  13  15
ENDBRANCH  12  13
ENDBRANCH   1  12
BRANCH  11  25
HETATM   25  S1  UNL     1     174.537 184.066 265.667  1.00  0.00    -0.105 SA
BRANCH  25  26
HETATM   26  C20 UNL     1     175.866 184.697 264.593  1.00  0.00     0.119 C 
BRANCH  26  27
HETATM   27  C21 UNL     1     176.789 183.574 264.219  1.00  0.00    -0.049 A 
HETATM   28  C22 UNL     1     177.105 182.578 265.158  1.00  0.00     0.008 A 
HETATM   29  C23 UNL     1     177.982 181.541 264.821  1.00  0.00     0.001 A 
HETATM   30  C24 UNL     1     178.543 181.487 263.544  1.00  0.00     0.000 A 
HETATM   31  C25 UNL     1     178.223 182.465 262.597  1.00  0.00     0.001 A 
HETATM   32  C26 UNL     1     177.354 183.508 262.934  1.00  0.00     0.008 A 
ENDBRANCH  26  27
ENDBRANCH  25  26
ENDBRANCH  11  25
TORSDOF 9
ENDMDL
MODEL 6
REMARK VINA RESULT:      -7.4      9.740     14.414
REMARK  9 active torsions:
REMARK  status: ('A' for Active; 'I' for Inactive)
REMARK    1  A    between atoms: C2_2  and  N1_3 
REMARK    2  A    between atoms: C7_8  and  C8_9 
REMARK    3  A    between atoms: C8_9  and  C9_10 
REMARK    4  A    between atoms: C9_10  and  N2_11 
REMARK    5  A    between atoms: N2_11  and  C10_12 
REMARK    6  A    between atoms: C10_12  and  C11_13 
REMARK    7  A    between atoms: C19_23  and  S1_24 
REMARK    8  A    between atoms: S1_24  and  C20_25 
REMARK    9  A    between atoms: C20_25  and  C21_26 
ROOT
HETATM    1  C11 UNL     1     173.396 185.919 269.346  1.00  0.00     0.006 A 
HETATM    2  C12 UNL     1     173.587 185.739 267.968  1.00  0.00     0.025 A 
HETATM    3  C13 UNL     1     174.787 185.207 267.483  1.00  0.00    -0.005 A 
HETATM    4  C14 UNL     1     174.989 185.000 266.111  1.00  0.00     0.032 A 
HETATM    5  C15 UNL     1     176.195 184.451 265.655  1.00  0.00     0.011 A 
HETATM    6 BR1  UNL     1     176.464 184.155 263.788  1.00  0.00    -0.051 Br
HETATM    7  C16 UNL     1     177.200 184.111 266.567  1.00  0.00     0.021 A 
HETATM    8  C17 UNL     1     177.005 184.321 267.935  1.00  0.00     0.034 A 
HETATM    9  C18 UNL     1     175.802 184.865 268.398  1.00  0.00     0.068 A 
HETATM   10  N3  UNL     1     175.604 185.053 269.729  1.00  0.00    -0.241 NA
HETATM   11  C19 UNL     1     174.446 185.564 270.226  1.00  0.00     0.102 A 
ENDROOT
BRANCH   1  12
HETATM   12  C10 UNL     1     172.071 186.461 269.825  1.00  0.00     0.311 C 
BRANCH  12  13
HETATM   13  N2  UNL     1     171.176 186.636 268.678  1.00  0.00     0.087 N 
HETATM   14  H19 UNL     1     170.364 185.988 268.743  1.00  0.00     0.316 HD
BRANCH  13  15
HETATM   15  C9  UNL     1     170.737 188.025 268.473  1.00  0.00     0.270 C 
BRANCH  15  16
HETATM   16  C8  UNL     1     171.293 188.727 267.203  1.00  0.00     0.034 C 
BRANCH  16  17
HETATM   17  C7  UNL     1     172.473 189.728 267.365  1.00  0.00    -0.010 C 
HETATM   18  C4  UNL     1     173.856 189.041 267.426  1.00  0.00     0.035 C 
HETATM   19  C3  UNL     1     174.905 189.974 268.046  1.00  0.00     0.272 C 
HETATM   20  N1  UNL     1     174.564 190.383 269.434  1.00  0.00     0.088 N 
HETATM   21  C5  UNL     1     173.110 190.456 269.724  1.00  0.00     0.272 C 
HETATM   22  C6  UNL     1     172.278 190.786 268.479  1.00  0.00     0.035 C 
BRANCH  20  23
HETATM   23  C2  UNL     1     175.274 189.572 270.448  1.00  0.00     0.268 C 
HETATM   24  C1  UNL     1     174.397 189.385 271.682  1.00  0.00     0.037 C 
ENDBRANCH  20  23
ENDBRANCH  16  17
ENDBRANCH  15  16
ENDBRANCH  13  15
ENDBRANCH  12  13
ENDBRANCH   1  12
BRANCH  11  25
HETATM   25  S1  UNL     1     174.301 185.719 272.011  1.00  0.00    -0.105 SA
BRANCH  25  26
HETATM   26  C20 UNL     1     176.080 186.020 272.259  1.00  0.00     0.119 C 
BRANCH  26  27
HETATM   27  C21 UNL     1     176.428 185.827 273.707  1.00  0.00    -0.049 A 
HETATM   28  C22 UNL     1     175.535 185.162 274.564  1.00  0.00     0.008 A 
HETATM   29  C23 UNL     1     175.845 184.999 275.918  1.00  0.00     0.001 A 
HETATM   30  C24 UNL     1     177.049 185.491 276.425  1.00  0.00     0.000 A 
HETATM   31  C25 UNL     1     177.952 186.140 275.577  1.00  0.00     0.001 A 
HETATM   32  C26 UNL     1     177.640 186.314 274.224  1.00  0.00     0.008 A 
ENDBRANCH  26  27
ENDBRANCH  25  26
ENDBRANCH  11  25
TORSDOF 9
ENDMDL
MODEL 7
REMARK VINA RESULT:      -7.4      8.933     12.846
REMARK  9 active torsions:
REMARK  status: ('A' for Active; 'I' for Inactive)
REMARK    1  A    between atoms: C2_2  and  N1_3 
REMARK    2  A    between atoms: C7_8  and  C8_9 
REMARK    3  A    between atoms: C8_9  and  C9_10 
REMARK    4  A    between atoms: C9_10  and  N2_11 
REMARK    5  A    between atoms: N2_11  and  C10_12 
REMARK    6  A    between atoms: C10_12  and  C11_13 
REMARK    7  A    between atoms: C19_23  and  S1_24 
REMARK    8  A    between atoms: S1_24  and  C20_25 
REMARK    9  A    between atoms: C20_25  and  C21_26 
ROOT
HETATM    1  C11 UNL     1     174.630 186.754 269.856  1.00  0.00     0.006 A 
HETATM    2  C12 UNL     1     175.004 186.123 268.660  1.00  0.00     0.025 A 
HETATM    3  C13 UNL     1     175.321 184.761 268.647  1.00  0.00    -0.005 A 
HETATM    4  C14 UNL     1     175.678 184.107 267.459  1.00  0.00     0.032 A 
HETATM    5  C15 UNL     1     175.975 182.738 267.474  1.00  0.00     0.011 A 
HETATM    6 BR1  UNL     1     176.445 181.845 265.853  1.00  0.00    -0.051 Br
HETATM    7  C16 UNL     1     175.921 182.022 268.675  1.00  0.00     0.021 A 
HETATM    8  C17 UNL     1     175.572 182.670 269.863  1.00  0.00     0.034 A 
HETATM    9  C18 UNL     1     175.270 184.036 269.855  1.00  0.00     0.068 A 
HETATM   10  N3  UNL     1     174.913 184.664 271.005  1.00  0.00    -0.241 NA
HETATM   11  C19 UNL     1     174.596 185.986 271.044  1.00  0.00     0.102 A 
ENDROOT
BRANCH   1  12
HETATM   12  C10 UNL     1     174.259 188.218 269.813  1.00  0.00     0.311 C 
BRANCH  12  13
HETATM   13  N2  UNL     1     175.463 189.015 269.562  1.00  0.00     0.087 N 
HETATM   14  H19 UNL     1     175.412 189.476 268.631  1.00  0.00     0.316 HD
BRANCH  13  15
HETATM   15  C9  UNL     1     175.763 189.987 270.625  1.00  0.00     0.270 C 
BRANCH  15  16
HETATM   16  C8  UNL     1     175.524 191.479 270.263  1.00  0.00     0.034 C 
BRANCH  16  17
HETATM   17  C7  UNL     1     174.365 192.237 270.970  1.00  0.00    -0.010 C 
HETATM   18  C4  UNL     1     174.847 193.198 272.081  1.00  0.00     0.035 C 
HETATM   19  C3  UNL     1     173.701 193.546 273.040  1.00  0.00     0.272 C 
HETATM   20  N1  UNL     1     173.133 192.351 273.719  1.00  0.00     0.088 N 
HETATM   21  C5  UNL     1     173.207 191.093 272.934  1.00  0.00     0.272 C 
HETATM   22  C6  UNL     1     173.184 191.342 271.421  1.00  0.00     0.035 C 
BRANCH  20  23
HETATM   23  C2  UNL     1     173.680 192.167 275.081  1.00  0.00     0.268 C 
HETATM   24  C1  UNL     1     174.562 193.352 275.460  1.00  0.00     0.037 C 
ENDBRANCH  20  23
ENDBRANCH  16  17
ENDBRANCH  15  16
ENDBRANCH  13  15
ENDBRANCH  12  13
ENDBRANCH   1  12
BRANCH  11  25
HETATM   25  S1  UNL     1     174.099 186.680 272.625  1.00  0.00    -0.105 SA
BRANCH  25  26
HETATM   26  C20 UNL     1     174.532 185.181 273.565  1.00  0.00     0.119 C 
BRANCH  26  27
HETATM   27  C21 UNL     1     175.751 185.444 274.401  1.00  0.00    -0.049 A 
HETATM   28  C22 UNL     1     175.796 185.014 275.738  1.00  0.00     0.008 A 
HETATM   29  C23 UNL     1     176.920 185.275 276.527  1.00  0.00     0.001 A 
HETATM   30  C24 UNL     1     178.010 185.961 275.988  1.00  0.00     0.000 A 
HETATM   31  C25 UNL     1     177.982 186.379 274.653  1.00  0.00     0.001 A 
HETATM   32  C26 UNL     1     176.854 186.128 273.864  1.00  0.00     0.008 A 
ENDBRANCH  26  27
ENDBRANCH  25  26
ENDBRANCH  11  25
TORSDOF 9
ENDMDL
MODEL 8
REMARK VINA RESULT:      -7.3      4.721      7.629
REMARK  9 active torsions:
REMARK  status: ('A' for Active; 'I' for Inactive)
REMARK    1  A    between atoms: C2_2  and  N1_3 
REMARK    2  A    between atoms: C7_8  and  C8_9 
REMARK    3  A    between atoms: C8_9  and  C9_10 
REMARK    4  A    between atoms: C9_10  and  N2_11 
REMARK    5  A    between atoms: N2_11  and  C10_12 
REMARK    6  A    between atoms: C10_12  and  C11_13 
REMARK    7  A    between atoms: C19_23  and  S1_24 
REMARK    8  A    between atoms: S1_24  and  C20_25 
REMARK    9  A    between atoms: C20_25  and  C21_26 
ROOT
HETATM    1  C11 UNL     1     173.158 187.139 274.968  1.00  0.00     0.006 A 
HETATM    2  C12 UNL     1     174.045 186.613 275.920  1.00  0.00     0.025 A 
HETATM    3  C13 UNL     1     175.403 186.465 275.616  1.00  0.00    -0.005 A 
HETATM    4  C14 UNL     1     176.309 185.961 276.560  1.00  0.00     0.032 A 
HETATM    5  C15 UNL     1     177.666 185.838 276.233  1.00  0.00     0.011 A 
HETATM    6 BR1  UNL     1     178.902 185.166 277.523  1.00  0.00    -0.051 Br
HETATM    7  C16 UNL     1     178.118 186.215 274.963  1.00  0.00     0.021 A 
HETATM    8  C17 UNL     1     177.217 186.712 274.017  1.00  0.00     0.034 A 
HETATM    9  C18 UNL     1     175.862 186.841 274.338  1.00  0.00     0.068 A 
HETATM   10  N3  UNL     1     174.988 187.341 273.425  1.00  0.00    -0.241 NA
HETATM   11  C19 UNL     1     173.665 187.499 273.697  1.00  0.00     0.102 A 
ENDROOT
BRANCH   1  12
HETATM   12  C10 UNL     1     171.709 187.315 275.355  1.00  0.00     0.311 C 
BRANCH  12  13
HETATM   13  N2  UNL     1     171.632 187.855 276.715  1.00  0.00     0.087 N 
HETATM   14  H19 UNL     1     171.297 188.840 276.702  1.00  0.00     0.316 HD
BRANCH  13  15
HETATM   15  C9  UNL     1     170.837 187.031 277.637  1.00  0.00     0.270 C 
BRANCH  15  16
HETATM   16  C8  UNL     1     171.620 186.384 278.813  1.00  0.00     0.034 C 
BRANCH  16  17
HETATM   17  C7  UNL     1     172.629 187.264 279.606  1.00  0.00    -0.010 C 
HETATM   18  C4  UNL     1     174.091 186.776 279.492  1.00  0.00     0.035 C 
HETATM   19  C3  UNL     1     174.950 187.351 280.625  1.00  0.00     0.272 C 
HETATM   20  N1  UNL     1     174.466 186.954 281.974  1.00  0.00     0.088 N 
HETATM   21  C5  UNL     1     173.002 186.732 282.071  1.00  0.00     0.272 C 
HETATM   22  C6  UNL     1     172.211 187.575 281.064  1.00  0.00     0.035 C 
BRANCH  20  23
HETATM   23  C2  UNL     1     175.221 185.808 282.527  1.00  0.00     0.268 C 
HETATM   24  C1  UNL     1     174.333 184.569 282.583  1.00  0.00     0.037 C 
ENDBRANCH  20  23
ENDBRANCH  16  17
ENDBRANCH  15  16
ENDBRANCH  13  15
ENDBRANCH  12  13
ENDBRANCH   1  12
BRANCH  11  25
HETATM   25  S1  UNL     1     172.629 188.213 272.414  1.00  0.00    -0.105 SA
BRANCH  25  26
HETATM   26  C20 UNL     1     174.023 188.530 271.285  1.00  0.00     0.119 C 
BRANCH  26  27
HETATM   27  C21 UNL     1     174.376 189.989 271.316  1.00  0.00    -0.049 A 
HETATM   28  C22 UNL     1     173.605 190.885 272.075  1.00  0.00     0.008 A 
HETATM   29  C23 UNL     1     173.918 192.248 272.090  1.00  0.00     0.001 A 
HETATM   30  C24 UNL     1     175.004 192.726 271.355  1.00  0.00     0.000 A 
HETATM   31  C25 UNL     1     175.788 191.839 270.609  1.00  0.00     0.001 A 
HETATM   32  C26 UNL     1     175.472 190.476 270.584  1.00  0.00     0.008 A 
ENDBRANCH  26  27
ENDBRANCH  25  26
ENDBRANCH  11  25
TORSDOF 9
ENDMDL
MODEL 9
REMARK VINA RESULT:      -7.3      9.051     14.047
REMARK  9 active torsions:
REMARK  status: ('A' for Active; 'I' for Inactive)
REMARK    1  A    between atoms: C2_2  and  N1_3 
REMARK    2  A    between atoms: C7_8  and  C8_9 
REMARK    3  A    between atoms: C8_9  and  C9_10 
REMARK    4  A    between atoms: C9_10  and  N2_11 
REMARK    5  A    between atoms: N2_11  and  C10_12 
REMARK    6  A    between atoms: C10_12  and  C11_13 
REMARK    7  A    between atoms: C19_23  and  S1_24 
REMARK    8  A    between atoms: S1_24  and  C20_25 
REMARK    9  A    between atoms: C20_25  and  C21_26 
ROOT
HETATM    1  C11 UNL     1     176.631 184.332 267.922  1.00  0.00     0.006 A 
HETATM    2  C12 UNL     1     177.243 183.459 267.008  1.00  0.00     0.025 A 
HETATM    3  C13 UNL     1     176.974 183.565 265.639  1.00  0.00    -0.005 A 
HETATM    4  C14 UNL     1     177.590 182.717 264.709  1.00  0.00     0.032 A 
HETATM    5  C15 UNL     1     177.314 182.856 263.343  1.00  0.00     0.011 A 
HETATM    6 BR1  UNL     1     178.165 181.710 262.074  1.00  0.00    -0.051 Br
HETATM    7  C16 UNL     1     176.420 183.840 262.905  1.00  0.00     0.021 A 
HETATM    8  C17 UNL     1     175.798 184.684 263.829  1.00  0.00     0.034 A 
HETATM    9  C18 UNL     1     176.073 184.553 265.195  1.00  0.00     0.068 A 
HETATM   10  N3  UNL     1     175.483 185.385 266.093  1.00  0.00    -0.241 NA
HETATM   11  C19 UNL     1     175.731 185.305 267.427  1.00  0.00     0.102 A 
ENDROOT
BRANCH   1  12
HETATM   12  C10 UNL     1     176.981 184.204 269.385  1.00  0.00     0.311 C 
BRANCH  12  13
HETATM   13  N2  UNL     1     176.008 183.326 270.041  1.00  0.00     0.087 N 
HETATM   14  H19 UNL     1     176.334 182.338 270.025  1.00  0.00     0.316 HD
BRANCH  13  15
HETATM   15  C9  UNL     1     175.650 183.750 271.403  1.00  0.00     0.270 C 
BRANCH  15  16
HETATM   16  C8  UNL     1     176.182 185.143 271.839  1.00  0.00     0.034 C 
BRANCH  16  17
HETATM   17  C7  UNL     1     175.390 185.936 272.917  1.00  0.00    -0.010 C 
HETATM   18  C4  UNL     1     176.195 187.101 273.537  1.00  0.00     0.035 C 
HETATM   19  C3  UNL     1     175.588 187.534 274.877  1.00  0.00     0.272 C 
HETATM   20  N1  UNL     1     175.568 186.440 275.883  1.00  0.00     0.088 N 
HETATM   21  C5  UNL     1     175.443 185.073 275.317  1.00  0.00     0.272 C 
HETATM   22  C6  UNL     1     174.687 185.058 273.982  1.00  0.00     0.035 C 
BRANCH  20  23
HETATM   23  C2  UNL     1     176.703 186.526 276.829  1.00  0.00     0.268 C 
HETATM   24  C1  UNL     1     177.754 185.473 276.490  1.00  0.00     0.037 C 
ENDBRANCH  20  23
ENDBRANCH  16  17
ENDBRANCH  15  16
ENDBRANCH  13  15
ENDBRANCH  12  13
ENDBRANCH   1  12
BRANCH  11  25
HETATM   25  S1  UNL     1     174.917 186.496 268.500  1.00  0.00    -0.105 SA
BRANCH  25  26
HETATM   26  C20 UNL     1     173.240 185.910 268.093  1.00  0.00     0.119 C 
BRANCH  26  27
HETATM   27  C21 UNL     1     172.783 184.928 269.132  1.00  0.00    -0.049 A 
HETATM   28  C22 UNL     1     172.667 183.565 268.811  1.00  0.00     0.008 A 
HETATM   29  C23 UNL     1     172.221 182.649 269.769  1.00  0.00     0.001 A 
HETATM   30  C24 UNL     1     171.892 183.085 271.055  1.00  0.00     0.000 A 
HETATM   31  C25 UNL     1     172.019 184.437 271.388  1.00  0.00     0.001 A 
HETATM   32  C26 UNL     1     172.456 185.358 270.429  1.00  0.00     0.008 A 
ENDBRANCH  26  27
ENDBRANCH  25  26
ENDBRANCH  11  25
TORSDOF 9
ENDMDL
