MODEL 1
REMARK VINA RESULT:      -7.3      0.000      0.000
REMARK  8 active torsions:
REMARK  status: ('A' for Active; 'I' for Inactive)
REMARK    1  A    between atoms: C_5  and  S_9 
REMARK    2  A    between atoms: C_6  and  C_8 
REMARK    3  A    between atoms: C_8  and  N_17 
REMARK    4  A    between atoms: S_9  and  C_10 
REMARK    5  A    between atoms: C_10  and  C_11 
REMARK    6  A    between atoms: N_17  and  C_19 
REMARK    7  A    between atoms: C_19  and  C_20 
REMARK    8  A    between atoms: C_20  and  N_21 
ROOT
HETATM    1  C           1     173.516 189.243 283.547  0.00  0.00     0.108 A 
HETATM    2  C           1     172.922 189.693 282.379  0.00  0.00     0.027 A 
HETATM    3  N           1     174.360 188.190 283.602  0.00  0.00    -0.359 N 
ATOM      4  HN          1     174.779 187.885 284.480  1.00  0.00     0.166 HD
HETATM    5  C           1     174.620 187.560 282.435  0.00  0.00     0.078 A 
HETATM    6  C           1     174.074 187.936 281.218  0.00  0.00     0.004 A 
HETATM    7  C           1     173.209 189.025 281.194  0.00  0.00     0.032 A 
HETATM    8 Br           1     171.757 191.171 282.396  0.00  0.00    -0.050 Br
ENDROOT
BRANCH   6   9
HETATM    9  C           1     174.408 187.191 279.964  0.00  0.00     0.311 C 
BRANCH   9  10
HETATM   10  N           1     173.235 186.512 279.481  0.00  0.00     0.089 N 
HETATM   11  H           1     173.073 185.675 280.041  0.00  0.00     0.316 HD
BRANCH  10  12
HETATM   12  C           1     173.479 186.135 278.115  0.00  0.00     0.300 C 
BRANCH  12  13
HETATM   13  C           1     174.756 186.804 277.624  0.00  0.00     0.302 C 
BRANCH  13  14
HETATM   14  N           1     174.788 186.782 276.187  0.00  0.00     0.093 N 
HETATM   15  C           1     176.117 187.271 275.780  0.00  0.00     0.302 C 
HETATM   16  C           1     176.399 187.066 274.276  0.00  0.00     0.302 C 
HETATM   17  N           1     176.239 185.665 273.846  0.00  0.00     0.087 N 
HETATM   18  C           1     176.284 185.660 272.409  0.00  0.00     0.310 C 
HETATM   19  C           1     174.910 185.176 274.254  0.00  0.00     0.302 C 
HETATM   20  C           1     174.628 185.381 275.758  0.00  0.00     0.302 C 
ENDBRANCH  13  14
ENDBRANCH  12  13
ENDBRANCH  10  12
ENDBRANCH   9  10
ENDBRANCH   6   9
BRANCH   5  21
HETATM   21  S           1     175.749 186.139 282.464  0.00  0.00    -0.107 SA
BRANCH  21  22
HETATM   22  C           1     174.418 184.923 282.656  0.00  0.00     0.119 C 
BRANCH  22  23
HETATM   23  C           1     173.955 184.909 284.080  0.00  0.00    -0.049 A 
HETATM   24  C           1     174.866 184.662 285.108  0.00  0.00     0.008 A 
HETATM   25  C           1     174.435 184.651 286.434  0.00  0.00     0.001 A 
HETATM   26  C           1     173.092 184.886 286.733  0.00  0.00     0.000 A 
HETATM   27  C           1     172.182 185.133 285.706  0.00  0.00     0.001 A 
HETATM   28  C           1     172.613 185.144 284.380  0.00  0.00     0.008 A 
ENDBRANCH  22  23
ENDBRANCH  21  22
ENDBRANCH   5  21
TORSDOF 8
ENDMDL
MODEL 2
REMARK VINA RESULT:      -7.1      2.518      8.115
REMARK  8 active torsions:
REMARK  status: ('A' for Active; 'I' for Inactive)
REMARK    1  A    between atoms: C_5  and  S_9 
REMARK    2  A    between atoms: C_6  and  C_8 
REMARK    3  A    between atoms: C_8  and  N_17 
REMARK    4  A    between atoms: S_9  and  C_10 
REMARK    5  A    between atoms: C_10  and  C_11 
REMARK    6  A    between atoms: N_17  and  C_19 
REMARK    7  A    between atoms: C_19  and  C_20 
REMARK    8  A    between atoms: C_20  and  N_21 
ROOT
HETATM    1  C           1     171.095 189.265 280.197  0.00  0.00     0.108 A 
HETATM    2  C           1     172.008 189.569 281.193  0.00  0.00     0.027 A 
HETATM    3  N           1     171.160 188.151 279.434  0.00  0.00    -0.359 N 
ATOM      4  HN          1     170.470 187.959 278.708  1.00  0.00     0.166 HD
HETATM    5  C           1     172.184 187.306 279.681  0.00  0.00     0.078 A 
HETATM    6  C           1     173.145 187.524 280.655  0.00  0.00     0.004 A 
HETATM    7  C           1     173.052 188.679 281.424  0.00  0.00     0.032 A 
HETATM    8 Br           1     171.841 191.144 282.208  0.00  0.00    -0.050 Br
ENDROOT
BRANCH   6   9
HETATM    9  C           1     174.254 186.543 280.873  0.00  0.00     0.311 C 
BRANCH   9  10
HETATM   10  N           1     175.266 187.138 281.705  0.00  0.00     0.089 N 
HETATM   11  H           1     175.943 187.625 281.119  0.00  0.00     0.316 HD
BRANCH  10  12
HETATM   12  C           1     175.924 186.077 282.419  0.00  0.00     0.300 C 
BRANCH  12  13
HETATM   13  C           1     174.882 185.105 282.959  0.00  0.00     0.302 C 
BRANCH  13  14
HETATM   14  N           1     174.359 185.604 284.202  0.00  0.00     0.093 N 
HETATM   15  C           1     172.898 185.425 284.155  0.00  0.00     0.302 C 
HETATM   16  C           1     172.217 185.677 285.518  0.00  0.00     0.302 C 
HETATM   17  N           1     172.778 184.853 286.603  0.00  0.00     0.087 N 
HETATM   18  C           1     172.237 185.358 287.836  0.00  0.00     0.310 C 
HETATM   19  C           1     174.240 185.032 286.649  0.00  0.00     0.302 C 
HETATM   20  C           1     174.921 184.780 285.286  0.00  0.00     0.302 C 
ENDBRANCH  13  14
ENDBRANCH  12  13
ENDBRANCH  10  12
ENDBRANCH   9  10
ENDBRANCH   6   9
BRANCH   5  21
HETATM   21  S           1     172.308 185.798 278.679  0.00  0.00    -0.107 SA
BRANCH  21  22
HETATM   22  C           1     172.734 186.690 277.158  0.00  0.00     0.119 C 
BRANCH  22  23
HETATM   23  C           1     174.103 186.284 276.707  0.00  0.00    -0.049 A 
HETATM   24  C           1     175.230 186.845 277.307  0.00  0.00     0.008 A 
HETATM   25  C           1     176.505 186.466 276.888  0.00  0.00     0.001 A 
HETATM   26  C           1     176.653 185.527 275.866  0.00  0.00     0.000 A 
HETATM   27  C           1     175.525 184.966 275.266  0.00  0.00     0.001 A 
HETATM   28  C           1     174.251 185.346 275.686  0.00  0.00     0.008 A 
ENDBRANCH  22  23
ENDBRANCH  21  22
ENDBRANCH   5  21
TORSDOF 8
ENDMDL
MODEL 3
REMARK VINA RESULT:      -7.0      7.273     10.683
REMARK  8 active torsions:
REMARK  status: ('A' for Active; 'I' for Inactive)
REMARK    1  A    between atoms: C_5  and  S_9 
REMARK    2  A    between atoms: C_6  and  C_8 
REMARK    3  A    between atoms: C_8  and  N_17 
REMARK    4  A    between atoms: S_9  and  C_10 
REMARK    5  A    between atoms: C_10  and  C_11 
REMARK    6  A    between atoms: N_17  and  C_19 
REMARK    7  A    between atoms: C_19  and  C_20 
REMARK    8  A    between atoms: C_20  and  N_21 
ROOT
HETATM    1  C           1     175.434 184.919 275.547  0.00  0.00     0.108 A 
HETATM    2  C           1     176.616 185.616 275.359  0.00  0.00     0.027 A 
HETATM    3  N           1     174.393 184.962 274.687  0.00  0.00    -0.359 N 
ATOM      4  HN          1     173.536 184.436 274.858  1.00  0.00     0.166 HD
HETATM    5  C           1     174.543 185.736 273.591  0.00  0.00     0.078 A 
HETATM    6  C           1     175.687 186.470 273.317  0.00  0.00     0.004 A 
HETATM    7  C           1     176.742 186.405 274.221  0.00  0.00     0.032 A 
HETATM    8 Br           1     178.016 185.498 276.611  0.00  0.00    -0.050 Br
ENDROOT
BRANCH   6   9
HETATM    9  C           1     175.784 187.307 272.081  0.00  0.00     0.311 C 
BRANCH   9  10
HETATM   10  N           1     175.823 188.699 272.444  0.00  0.00     0.089 N 
HETATM   11  H           1     175.511 188.806 273.409  0.00  0.00     0.316 HD
BRANCH  10  12
HETATM   12  C           1     174.928 189.405 271.568  0.00  0.00     0.300 C 
BRANCH  12  13
HETATM   13  C           1     175.731 190.098 270.474  0.00  0.00     0.302 C 
BRANCH  13  14
HETATM   14  N           1     174.995 190.056 269.240  0.00  0.00     0.093 N 
HETATM   15  C           1     174.924 188.642 268.830  0.00  0.00     0.302 C 
HETATM   16  C           1     173.948 188.404 267.658  0.00  0.00     0.302 C 
HETATM   17  N           1     172.589 188.904 267.929  0.00  0.00     0.087 N 
HETATM   18  C           1     171.865 188.845 266.688  0.00  0.00     0.310 C 
HETATM   19  C           1     172.660 190.317 268.339  0.00  0.00     0.302 C 
HETATM   20  C           1     173.636 190.556 269.512  0.00  0.00     0.302 C 
ENDBRANCH  13  14
ENDBRANCH  12  13
ENDBRANCH  10  12
ENDBRANCH   9  10
ENDBRANCH   6   9
BRANCH   5  21
HETATM   21  S           1     173.169 185.822 272.409  0.00  0.00    -0.107 SA
BRANCH  21  22
HETATM   22  C           1     173.365 184.104 271.862  0.00  0.00     0.119 C 
BRANCH  22  23
HETATM   23  C           1     174.488 184.018 270.876  0.00  0.00    -0.049 A 
HETATM   24  C           1     174.483 184.828 269.740  0.00  0.00     0.008 A 
HETATM   25  C           1     175.530 184.749 268.823  0.00  0.00     0.001 A 
HETATM   26  C           1     176.583 183.859 269.040  0.00  0.00     0.000 A 
HETATM   27  C           1     176.588 183.049 270.176  0.00  0.00     0.001 A 
HETATM   28  C           1     175.540 183.129 271.093  0.00  0.00     0.008 A 
ENDBRANCH  22  23
ENDBRANCH  21  22
ENDBRANCH   5  21
TORSDOF 8
ENDMDL
MODEL 4
REMARK VINA RESULT:      -7.0      8.101     11.233
REMARK  8 active torsions:
REMARK  status: ('A' for Active; 'I' for Inactive)
REMARK    1  A    between atoms: C_5  and  S_9 
REMARK    2  A    between atoms: C_6  and  C_8 
REMARK    3  A    between atoms: C_8  and  N_17 
REMARK    4  A    between atoms: S_9  and  C_10 
REMARK    5  A    between atoms: C_10  and  C_11 
REMARK    6  A    between atoms: N_17  and  C_19 
REMARK    7  A    between atoms: C_19  and  C_20 
REMARK    8  A    between atoms: C_20  and  N_21 
ROOT
HETATM    1  C           1     176.510 183.987 269.294  0.00  0.00     0.108 A 
HETATM    2  C           1     176.356 184.506 268.019  0.00  0.00     0.027 A 
HETATM    3  N           1     176.029 184.580 270.409  0.00  0.00    -0.359 N 
ATOM      4  HN          1     176.162 184.170 271.334  1.00  0.00     0.166 HD
HETATM    5  C           1     175.365 185.744 270.238  0.00  0.00     0.078 A 
HETATM    6  C           1     175.161 186.341 269.005  0.00  0.00     0.004 A 
HETATM    7  C           1     175.667 185.706 267.875  0.00  0.00     0.032 A 
HETATM    8 Br           1     177.059 183.611 266.521  0.00  0.00    -0.050 Br
ENDROOT
BRANCH   6   9
HETATM    9  C           1     174.414 187.633 268.890  0.00  0.00     0.311 C 
BRANCH   9  10
HETATM   10  N           1     175.282 188.643 268.346  0.00  0.00     0.089 N 
HETATM   11  H           1     176.254 188.373 268.497  0.00  0.00     0.316 HD
BRANCH  10  12
HETATM   12  C           1     175.012 189.873 269.040  0.00  0.00     0.300 C 
BRANCH  12  13
HETATM   13  C           1     175.648 189.825 270.423  0.00  0.00     0.302 C 
BRANCH  13  14
HETATM   14  N           1     174.968 190.742 271.297  0.00  0.00     0.093 N 
HETATM   15  C           1     175.375 192.100 270.895  0.00  0.00     0.302 C 
HETATM   16  C           1     174.535 193.205 271.571  0.00  0.00     0.302 C 
HETATM   17  N           1     173.087 193.042 271.350  0.00  0.00     0.087 N 
HETATM   18  C           1     172.423 193.973 272.222  0.00  0.00     0.310 C 
HETATM   19  C           1     172.679 191.685 271.751  0.00  0.00     0.302 C 
HETATM   20  C           1     173.520 190.579 271.076  0.00  0.00     0.302 C 
ENDBRANCH  13  14
ENDBRANCH  12  13
ENDBRANCH  10  12
ENDBRANCH   9  10
ENDBRANCH   6   9
BRANCH   5  21
HETATM   21  S           1     174.703 186.574 271.710  0.00  0.00    -0.107 SA
BRANCH  21  22
HETATM   22  C           1     174.856 185.106 272.764  0.00  0.00     0.119 C 
BRANCH  22  23
HETATM   23  C           1     175.809 185.390 273.882  0.00  0.00    -0.049 A 
HETATM   24  C           1     175.532 184.930 275.170  0.00  0.00     0.008 A 
HETATM   25  C           1     176.421 185.193 276.211  0.00  0.00     0.001 A 
HETATM   26  C           1     177.588 185.919 275.966  0.00  0.00     0.000 A 
HETATM   27  C           1     177.865 186.379 274.679  0.00  0.00     0.001 A 
HETATM   28  C           1     176.975 186.114 273.638  0.00  0.00     0.008 A 
ENDBRANCH  22  23
ENDBRANCH  21  22
ENDBRANCH   5  21
TORSDOF 8
ENDMDL
MODEL 5
REMARK VINA RESULT:      -6.8      7.421     11.043
REMARK  8 active torsions:
REMARK  status: ('A' for Active; 'I' for Inactive)
REMARK    1  A    between atoms: C_5  and  S_9 
REMARK    2  A    between atoms: C_6  and  C_8 
REMARK    3  A    between atoms: C_8  and  N_17 
REMARK    4  A    between atoms: S_9  and  C_10 
REMARK    5  A    between atoms: C_10  and  C_11 
REMARK    6  A    between atoms: N_17  and  C_19 
REMARK    7  A    between atoms: C_19  and  C_20 
REMARK    8  A    between atoms: C_20  and  N_21 
ROOT
HETATM    1  C           1     176.849 187.658 275.473  0.00  0.00     0.108 A 
HETATM    2  C           1     176.926 186.275 275.517  0.00  0.00     0.027 A 
HETATM    3  N           1     176.048 188.338 274.624  0.00  0.00    -0.359 N 
ATOM      4  HN          1     176.016 189.357 274.619  1.00  0.00     0.166 HD
HETATM    5  C           1     175.291 187.600 273.782  0.00  0.00     0.078 A 
HETATM    6  C           1     175.300 186.215 273.751  0.00  0.00     0.004 A 
HETATM    7  C           1     176.135 185.543 274.638  0.00  0.00     0.032 A 
HETATM    8 Br           1     178.072 185.410 276.733  0.00  0.00    -0.050 Br
ENDROOT
BRANCH   6   9
HETATM    9  C           1     174.434 185.462 272.790  0.00  0.00     0.311 C 
BRANCH   9  10
HETATM   10  N           1     174.761 184.062 272.844  0.00  0.00     0.089 N 
HETATM   11  H           1     175.751 183.953 273.064  0.00  0.00     0.316 HD
BRANCH  10  12
HETATM   12  C           1     174.493 183.501 271.547  0.00  0.00     0.300 C 
BRANCH  12  13
HETATM   13  C           1     175.794 183.393 270.762  0.00  0.00     0.302 C 
BRANCH  13  14
HETATM   14  N           1     175.651 184.067 269.500  0.00  0.00     0.093 N 
HETATM   15  C           1     177.008 184.259 268.959  0.00  0.00     0.302 C 
HETATM   16  C           1     177.008 184.740 267.493  0.00  0.00     0.302 C 
HETATM   17  N           1     176.244 183.854 266.596  0.00  0.00     0.087 N 
HETATM   18  C           1     176.120 184.538 265.337  0.00  0.00     0.310 C 
HETATM   19  C           1     174.887 183.662 267.137  0.00  0.00     0.302 C 
HETATM   20  C           1     174.887 183.181 268.605  0.00  0.00     0.302 C 
ENDBRANCH  13  14
ENDBRANCH  12  13
ENDBRANCH  10  12
ENDBRANCH   9  10
ENDBRANCH   6   9
BRANCH   5  21
HETATM   21  S           1     174.200 188.475 272.625  0.00  0.00    -0.107 SA
BRANCH  21  22
HETATM   22  C           1     175.553 188.963 271.519  0.00  0.00     0.119 C 
BRANCH  22  23
HETATM   23  C           1     175.097 188.867 270.097  0.00  0.00    -0.049 A 
HETATM   24  C           1     174.979 187.620 269.484  0.00  0.00     0.008 A 
HETATM   25  C           1     174.552 187.530 268.160  0.00  0.00     0.001 A 
HETATM   26  C           1     174.244 188.690 267.447  0.00  0.00     0.000 A 
HETATM   27  C           1     174.362 189.937 268.059  0.00  0.00     0.001 A 
HETATM   28  C           1     174.788 190.026 269.384  0.00  0.00     0.008 A 
ENDBRANCH  22  23
ENDBRANCH  21  22
ENDBRANCH   5  21
TORSDOF 8
ENDMDL
MODEL 6
REMARK VINA RESULT:      -6.7      7.345     10.853
REMARK  8 active torsions:
REMARK  status: ('A' for Active; 'I' for Inactive)
REMARK    1  A    between atoms: C_5  and  S_9 
REMARK    2  A    between atoms: C_6  and  C_8 
REMARK    3  A    between atoms: C_8  and  N_17 
REMARK    4  A    between atoms: S_9  and  C_10 
REMARK    5  A    between atoms: C_10  and  C_11 
REMARK    6  A    between atoms: N_17  and  C_19 
REMARK    7  A    between atoms: C_19  and  C_20 
REMARK    8  A    between atoms: C_20  and  N_21 
ROOT
HETATM    1  C           1     175.370 185.004 275.418  0.00  0.00     0.108 A 
HETATM    2  C           1     176.552 185.692 275.195  0.00  0.00     0.027 A 
HETATM    3  N           1     174.323 185.015 274.565  0.00  0.00    -0.359 N 
ATOM      4  HN          1     173.466 184.497 274.761  1.00  0.00     0.166 HD
HETATM    5  C           1     174.467 185.746 273.438  0.00  0.00     0.078 A 
HETATM    6  C           1     175.609 186.467 273.127  0.00  0.00     0.004 A 
HETATM    7  C           1     176.671 186.436 274.026  0.00  0.00     0.032 A 
HETATM    8 Br           1     177.960 185.620 276.441  0.00  0.00    -0.050 Br
ENDROOT
BRANCH   6   9
HETATM    9  C           1     175.699 187.255 271.859  0.00  0.00     0.311 C 
BRANCH   9  10
HETATM   10  N           1     175.731 188.660 272.168  0.00  0.00     0.089 N 
HETATM   11  H           1     175.331 188.814 273.093  0.00  0.00     0.316 HD
BRANCH  10  12
HETATM   12  C           1     174.937 189.343 271.182  0.00  0.00     0.300 C 
BRANCH  12  13
HETATM   13  C           1     175.716 190.533 270.637  0.00  0.00     0.302 C 
BRANCH  13  14
HETATM   14  N           1     174.830 191.653 270.476  0.00  0.00     0.093 N 
HETATM   15  C           1     173.471 191.107 270.314  0.00  0.00     0.302 C 
HETATM   16  C           1     172.374 192.190 270.386  0.00  0.00     0.302 C 
HETATM   17  N           1     172.436 192.991 271.621  0.00  0.00     0.087 N 
HETATM   18  C           1     171.537 194.100 271.447  0.00  0.00     0.310 C 
HETATM   19  C           1     173.795 193.538 271.783  0.00  0.00     0.302 C 
HETATM   20  C           1     174.893 192.454 271.711  0.00  0.00     0.302 C 
ENDBRANCH  13  14
ENDBRANCH  12  13
ENDBRANCH  10  12
ENDBRANCH   9  10
ENDBRANCH   6   9
BRANCH   5  21
HETATM   21  S           1     173.084 185.788 272.263  0.00  0.00    -0.107 SA
BRANCH  21  22
HETATM   22  C           1     173.229 184.031 271.834  0.00  0.00     0.119 C 
BRANCH  22  23
HETATM   23  C           1     174.338 183.849 270.844  0.00  0.00    -0.049 A 
HETATM   24  C           1     174.326 184.558 269.643  0.00  0.00     0.008 A 
HETATM   25  C           1     175.359 184.389 268.722  0.00  0.00     0.001 A 
HETATM   26  C           1     176.405 183.508 269.001  0.00  0.00     0.000 A 
HETATM   27  C           1     176.417 182.799 270.202  0.00  0.00     0.001 A 
HETATM   28  C           1     175.384 182.969 271.123  0.00  0.00     0.008 A 
ENDBRANCH  22  23
ENDBRANCH  21  22
ENDBRANCH   5  21
TORSDOF 8
ENDMDL
MODEL 7
REMARK VINA RESULT:      -6.5      7.882     10.684
REMARK  8 active torsions:
REMARK  status: ('A' for Active; 'I' for Inactive)
REMARK    1  A    between atoms: C_5  and  S_9 
REMARK    2  A    between atoms: C_6  and  C_8 
REMARK    3  A    between atoms: C_8  and  N_17 
REMARK    4  A    between atoms: S_9  and  C_10 
REMARK    5  A    between atoms: C_10  and  C_11 
REMARK    6  A    between atoms: N_17  and  C_19 
REMARK    7  A    between atoms: C_19  and  C_20 
REMARK    8  A    between atoms: C_20  and  N_21 
ROOT
HETATM    1  C           1     172.620 183.004 271.382  0.00  0.00     0.108 A 
HETATM    2  C           1     171.967 183.390 270.222  0.00  0.00     0.027 A 
HETATM    3  N           1     173.859 183.424 271.720  0.00  0.00    -0.359 N 
ATOM      4  HN          1     174.311 183.119 272.582  1.00  0.00     0.166 HD
HETATM    5  C           1     174.469 184.268 270.860  0.00  0.00     0.078 A 
HETATM    6  C           1     173.897 184.710 269.677  0.00  0.00     0.004 A 
HETATM    7  C           1     172.620 184.260 269.356  0.00  0.00     0.032 A 
HETATM    8 Br           1     170.240 182.754 269.830  0.00  0.00    -0.050 Br
ENDROOT
BRANCH   6   9
HETATM    9  C           1     174.632 185.646 268.771  0.00  0.00     0.311 C 
BRANCH   9  10
HETATM   10  N           1     173.773 186.743 268.413  0.00  0.00     0.089 N 
HETATM   11  H           1     174.058 187.116 267.508  0.00  0.00     0.316 HD
BRANCH  10  12
HETATM   12  C           1     173.920 187.760 269.419  0.00  0.00     0.300 C 
BRANCH  12  13
HETATM   13  C           1     175.118 188.638 269.082  0.00  0.00     0.302 C 
BRANCH  13  14
HETATM   14  N           1     174.782 190.017 269.313  0.00  0.00     0.093 N 
HETATM   15  C           1     173.384 190.046 269.778  0.00  0.00     0.302 C 
HETATM   16  C           1     172.957 191.430 270.312  0.00  0.00     0.302 C 
HETATM   17  N           1     173.839 191.933 271.381  0.00  0.00     0.087 N 
HETATM   18  C           1     173.483 193.307 271.607  0.00  0.00     0.310 C 
HETATM   19  C           1     175.237 191.903 270.916  0.00  0.00     0.302 C 
HETATM   20  C           1     175.665 190.519 270.381  0.00  0.00     0.302 C 
ENDBRANCH  13  14
ENDBRANCH  12  13
ENDBRANCH  10  12
ENDBRANCH   9  10
ENDBRANCH   6   9
BRANCH   5  21
HETATM   21  S           1     176.134 184.858 271.277  0.00  0.00    -0.107 SA
BRANCH  21  22
HETATM   22  C           1     175.537 186.102 272.454  0.00  0.00     0.119 C 
BRANCH  22  23
HETATM   23  C           1     176.166 185.866 273.792  0.00  0.00    -0.049 A 
HETATM   24  C           1     177.441 186.364 274.062  0.00  0.00     0.008 A 
HETATM   25  C           1     178.025 186.145 275.309  0.00  0.00     0.001 A 
HETATM   26  C           1     177.336 185.427 276.286  0.00  0.00     0.000 A 
HETATM   27  C           1     176.061 184.929 276.017  0.00  0.00     0.001 A 
HETATM   28  C           1     175.477 185.149 274.769  0.00  0.00     0.008 A 
ENDBRANCH  22  23
ENDBRANCH  21  22
ENDBRANCH   5  21
TORSDOF 8
ENDMDL
MODEL 8
REMARK VINA RESULT:      -6.5      3.050      8.609
REMARK  8 active torsions:
REMARK  status: ('A' for Active; 'I' for Inactive)
REMARK    1  A    between atoms: C_5  and  S_9 
REMARK    2  A    between atoms: C_6  and  C_8 
REMARK    3  A    between atoms: C_8  and  N_17 
REMARK    4  A    between atoms: S_9  and  C_10 
REMARK    5  A    between atoms: C_10  and  C_11 
REMARK    6  A    between atoms: N_17  and  C_19 
REMARK    7  A    between atoms: C_19  and  C_20 
REMARK    8  A    between atoms: C_20  and  N_21 
ROOT
HETATM    1  C           1     170.953 187.209 274.833  0.00  0.00     0.108 A 
HETATM    2  C           1     169.824 187.375 275.618  0.00  0.00     0.027 A 
HETATM    3  N           1     172.168 186.883 275.325  0.00  0.00    -0.359 N 
ATOM      4  HN          1     172.979 186.769 274.718  1.00  0.00     0.166 HD
HETATM    5  C           1     172.254 186.714 276.663  0.00  0.00     0.078 A 
HETATM    6  C           1     171.182 186.858 277.529  0.00  0.00     0.004 A 
HETATM    7  C           1     169.944 187.195 276.991  0.00  0.00     0.032 A 
HETATM    8 Br           1     168.170 187.832 274.845  0.00  0.00    -0.050 Br
ENDROOT
BRANCH   6   9
HETATM    9  C           1     171.351 186.656 279.002  0.00  0.00     0.311 C 
BRANCH   9  10
HETATM   10  N           1     171.312 187.930 279.670  0.00  0.00     0.089 N 
HETATM   11  H           1     171.490 188.673 278.994  0.00  0.00     0.316 HD
BRANCH  10  12
HETATM   12  C           1     172.347 187.931 280.668  0.00  0.00     0.300 C 
BRANCH  12  13
HETATM   13  C           1     172.844 186.508 280.887  0.00  0.00     0.302 C 
BRANCH  13  14
HETATM   14  N           1     173.614 186.449 282.099  0.00  0.00     0.093 N 
HETATM   15  C           1     172.750 186.954 283.181  0.00  0.00     0.302 C 
HETATM   16  C           1     173.344 186.716 284.586  0.00  0.00     0.302 C 
HETATM   17  N           1     173.673 185.302 284.840  0.00  0.00     0.087 N 
HETATM   18  C           1     174.433 185.260 286.060  0.00  0.00     0.310 C 
HETATM   19  C           1     174.537 184.798 283.758  0.00  0.00     0.302 C 
HETATM   20  C           1     173.942 185.035 282.352  0.00  0.00     0.302 C 
ENDBRANCH  13  14
ENDBRANCH  12  13
ENDBRANCH  10  12
ENDBRANCH   9  10
ENDBRANCH   6   9
BRANCH   5  21
HETATM   21  S           1     173.869 186.274 277.367  0.00  0.00    -0.107 SA
BRANCH  21  22
HETATM   22  C           1     174.349 185.247 275.950  0.00  0.00     0.119 C 
BRANCH  22  23
HETATM   23  C           1     175.725 185.629 275.500  0.00  0.00    -0.049 A 
HETATM   24  C           1     176.789 185.591 276.401  0.00  0.00     0.008 A 
HETATM   25  C           1     178.071 185.945 275.982  0.00  0.00     0.001 A 
HETATM   26  C           1     178.289 186.339 274.661  0.00  0.00     0.000 A 
HETATM   27  C           1     177.225 186.377 273.760  0.00  0.00     0.001 A 
HETATM   28  C           1     175.943 186.022 274.180  0.00  0.00     0.008 A 
ENDBRANCH  22  23
ENDBRANCH  21  22
ENDBRANCH   5  21
TORSDOF 8
ENDMDL
MODEL 9
REMARK VINA RESULT:      -6.4      7.771     12.097
REMARK  8 active torsions:
REMARK  status: ('A' for Active; 'I' for Inactive)
REMARK    1  A    between atoms: C_5  and  S_9 
REMARK    2  A    between atoms: C_6  and  C_8 
REMARK    3  A    between atoms: C_8  and  N_17 
REMARK    4  A    between atoms: S_9  and  C_10 
REMARK    5  A    between atoms: C_10  and  C_11 
REMARK    6  A    between atoms: N_17  and  C_19 
REMARK    7  A    between atoms: C_19  and  C_20 
REMARK    8  A    between atoms: C_20  and  N_21 
ROOT
HETATM    1  C           1     174.405 188.415 270.306  0.00  0.00     0.108 A 
HETATM    2  C           1     174.452 188.428 268.921  0.00  0.00     0.027 A 
HETATM    3  N           1     174.771 187.355 271.060  0.00  0.00    -0.359 N 
ATOM      4  HN          1     174.722 187.381 272.078  1.00  0.00     0.166 HD
HETATM    5  C           1     175.204 186.261 270.397  0.00  0.00     0.078 A 
HETATM    6  C           1     175.287 186.179 269.016  0.00  0.00     0.004 A 
HETATM    7  C           1     174.903 187.286 268.267  0.00  0.00     0.032 A 
HETATM    8 Br           1     173.921 189.950 267.951  0.00  0.00    -0.050 Br
ENDROOT
BRANCH   6   9
HETATM    9  C           1     175.778 184.932 268.349  0.00  0.00     0.311 C 
BRANCH   9  10
HETATM   10  N           1     177.054 185.186 267.735  0.00  0.00     0.089 N 
HETATM   11  H           1     177.062 186.129 267.347  0.00  0.00     0.316 HD
BRANCH  10  12
HETATM   12  C           1     177.226 184.230 266.675  0.00  0.00     0.300 C 
BRANCH  12  13
HETATM   13  C           1     176.152 184.446 265.616  0.00  0.00     0.302 C 
BRANCH  13  14
HETATM   14  N           1     176.040 183.268 264.799  0.00  0.00     0.093 N 
HETATM   15  C           1     175.280 183.651 263.597  0.00  0.00     0.302 C 
HETATM   16  C           1     175.294 182.561 262.504  0.00  0.00     0.302 C 
HETATM   17  N           1     176.655 182.154 262.114  0.00  0.00     0.087 N 
HETATM   18  C           1     176.523 180.982 261.290  0.00  0.00     0.310 C 
HETATM   19  C           1     177.415 181.771 263.317  0.00  0.00     0.302 C 
HETATM   20  C           1     177.402 182.861 264.411  0.00  0.00     0.302 C 
ENDBRANCH  13  14
ENDBRANCH  12  13
ENDBRANCH  10  12
ENDBRANCH   9  10
ENDBRANCH   6   9
BRANCH   5  21
HETATM   21  S           1     175.707 184.815 271.372  0.00  0.00    -0.107 SA
BRANCH  21  22
HETATM   22  C           1     174.869 185.380 272.878  0.00  0.00     0.119 C 
BRANCH  22  23
HETATM   23  C           1     175.871 185.528 273.981  0.00  0.00    -0.049 A 
HETATM   24  C           1     175.618 184.967 275.233  0.00  0.00     0.008 A 
HETATM   25  C           1     176.552 185.104 276.260  0.00  0.00     0.001 A 
HETATM   26  C           1     177.738 185.803 276.036  0.00  0.00     0.000 A 
HETATM   27  C           1     177.991 186.364 274.784  0.00  0.00     0.001 A 
HETATM   28  C           1     177.057 186.227 273.757  0.00  0.00     0.008 A 
ENDBRANCH  22  23
ENDBRANCH  21  22
ENDBRANCH   5  21
TORSDOF 8
ENDMDL
