MODEL 1
REMARK VINA RESULT:      -7.8      0.000      0.000
REMARK  8 active torsions:
REMARK  status: ('A' for Active; 'I' for Inactive)
REMARK    1  A    between atoms: N2_7  and  C6_8 
REMARK    2  A    between atoms: C6_8  and  C7_9 
REMARK    3  A    between atoms: C7_9  and  N3_10 
REMARK    4  A    between atoms: N3_10  and  C8_11 
REMARK    5  A    between atoms: C8_11  and  C9_12 
REMARK    6  A    between atoms: C17_21  and  S1_22 
REMARK    7  A    between atoms: S1_22  and  C18_23 
REMARK    8  A    between atoms: C18_23  and  C19_24 
ROOT
HETATM    1  C9  UNL     1     173.729 186.143 289.018  1.00  0.00     0.006 A 
HETATM    2  C10 UNL     1     173.713 185.606 290.320  1.00  0.00     0.025 A 
HETATM    3  C11 UNL     1     172.834 186.115 291.283  1.00  0.00    -0.007 A 
HETATM    4  C12 UNL     1     172.759 185.560 292.570  1.00  0.00     0.014 A 
HETATM    5  C13 UNL     1     171.845 186.073 293.499  1.00  0.00     0.001 A 
HETATM    6  C14 UNL     1     171.023 187.152 293.158  1.00  0.00     0.002 A 
HETATM    7  C15 UNL     1     171.092 187.708 291.878  1.00  0.00     0.032 A 
HETATM    8  C16 UNL     1     171.988 187.188 290.938  1.00  0.00     0.068 A 
HETATM    9  N4  UNL     1     172.034 187.705 289.683  1.00  0.00    -0.241 NA
HETATM   10  C17 UNL     1     172.868 187.224 288.723  1.00  0.00     0.102 A 
ENDROOT
BRANCH   1  11
HETATM   11  C8  UNL     1     174.642 185.542 287.974  1.00  0.00     0.311 C 
BRANCH  11  12
HETATM   12  N3  UNL     1     173.932 184.524 287.194  1.00  0.00     0.089 N 
HETATM   13  H16 UNL     1     172.959 184.869 287.020  1.00  0.00     0.316 HD
BRANCH  12  14
HETATM   14  C7  UNL     1     174.573 184.275 285.894  1.00  0.00     0.300 C 
BRANCH  14  15
HETATM   15  C6  UNL     1     175.309 185.537 285.435  1.00  0.00     0.302 C 
BRANCH  15  16
HETATM   16  N2  UNL     1     174.711 186.065 284.186  1.00  0.00     0.093 N 
HETATM   17  C3  UNL     1     175.720 186.111 283.109  1.00  0.00     0.302 C 
HETATM   18  C2  UNL     1     175.103 186.691 281.831  1.00  0.00     0.302 C 
HETATM   19  N1  UNL     1     173.951 185.871 281.411  1.00  0.00     0.087 N 
HETATM   20  C1  UNL     1     173.356 186.429 280.188  1.00  0.00     0.310 C 
HETATM   21  C4  UNL     1     172.944 185.833 282.486  1.00  0.00     0.302 C 
HETATM   22  C5  UNL     1     173.558 185.247 283.760  1.00  0.00     0.302 C 
ENDBRANCH  15  16
ENDBRANCH  14  15
ENDBRANCH  12  14
ENDBRANCH  11  12
ENDBRANCH   1  11
BRANCH  10  23
HETATM   23  S1  UNL     1     172.779 187.968 287.088  1.00  0.00    -0.105 SA
BRANCH  23  24
HETATM   24  C18 UNL     1     171.579 186.770 286.398  1.00  0.00     0.119 C 
BRANCH  24  25
HETATM   25  C19 UNL     1     170.520 186.379 287.399  1.00  0.00    -0.049 A 
HETATM   26  C20 UNL     1     170.499 185.080 287.943  1.00  0.00     0.008 A 
HETATM   27  C21 UNL     1     169.520 184.728 288.881  1.00  0.00     0.001 A 
HETATM   28  C22 UNL     1     168.548 185.657 289.268  1.00  0.00     0.000 A 
HETATM   29  C23 UNL     1     168.568 186.948 288.734  1.00  0.00     0.001 A 
HETATM   30  C24 UNL     1     169.550 187.315 287.810  1.00  0.00     0.008 A 
ENDBRANCH  24  25
ENDBRANCH  23  24
ENDBRANCH  10  23
TORSDOF 8
ENDMDL
MODEL 2
REMARK VINA RESULT:      -7.5      2.557      3.401
REMARK  8 active torsions:
REMARK  status: ('A' for Active; 'I' for Inactive)
REMARK    1  A    between atoms: N2_7  and  C6_8 
REMARK    2  A    between atoms: C6_8  and  C7_9 
REMARK    3  A    between atoms: C7_9  and  N3_10 
REMARK    4  A    between atoms: N3_10  and  C8_11 
REMARK    5  A    between atoms: C8_11  and  C9_12 
REMARK    6  A    between atoms: C17_21  and  S1_22 
REMARK    7  A    between atoms: S1_22  and  C18_23 
REMARK    8  A    between atoms: C18_23  and  C19_24 
ROOT
HETATM    1  C9  UNL     1     172.025 187.551 289.191  1.00  0.00     0.006 A 
HETATM    2  C10 UNL     1     172.317 187.364 290.556  1.00  0.00     0.025 A 
HETATM    3  C11 UNL     1     171.284 187.325 291.500  1.00  0.00    -0.007 A 
HETATM    4  C12 UNL     1     171.543 187.084 292.858  1.00  0.00     0.014 A 
HETATM    5  C13 UNL     1     170.483 187.019 293.771  1.00  0.00     0.001 A 
HETATM    6  C14 UNL     1     169.168 187.216 293.339  1.00  0.00     0.002 A 
HETATM    7  C15 UNL     1     168.902 187.454 291.987  1.00  0.00     0.032 A 
HETATM    8  C16 UNL     1     169.954 187.501 291.066  1.00  0.00     0.068 A 
HETATM    9  N4  UNL     1     169.696 187.700 289.748  1.00  0.00    -0.241 NA
HETATM   10  C17 UNL     1     170.677 187.731 288.807  1.00  0.00     0.102 A 
ENDROOT
BRANCH   1  11
HETATM   11  C8  UNL     1     173.148 187.532 288.179  1.00  0.00     0.311 C 
BRANCH  11  12
HETATM   12  N3  UNL     1     173.985 186.342 288.361  1.00  0.00     0.089 N 
HETATM   13  H16 UNL     1     173.888 186.027 289.354  1.00  0.00     0.316 HD
BRANCH  12  14
HETATM   14  C7  UNL     1     173.574 185.235 287.483  1.00  0.00     0.300 C 
BRANCH  14  15
HETATM   15  C6  UNL     1     174.656 184.990 286.428  1.00  0.00     0.302 C 
BRANCH  15  16
HETATM   16  N2  UNL     1     174.295 185.642 285.148  1.00  0.00     0.093 N 
HETATM   17  C3  UNL     1     174.834 184.877 284.006  1.00  0.00     0.302 C 
HETATM   18  C2  UNL     1     174.485 185.577 282.688  1.00  0.00     0.302 C 
HETATM   19  N1  UNL     1     173.023 185.713 282.562  1.00  0.00     0.087 N 
HETATM   20  C1  UNL     1     172.688 186.389 281.299  1.00  0.00     0.310 C 
HETATM   21  C4  UNL     1     172.489 186.483 283.699  1.00  0.00     0.302 C 
HETATM   22  C5  UNL     1     172.831 185.779 285.014  1.00  0.00     0.302 C 
ENDBRANCH  15  16
ENDBRANCH  14  15
ENDBRANCH  12  14
ENDBRANCH  11  12
ENDBRANCH   1  11
BRANCH  10  23
HETATM   23  S1  UNL     1     170.184 187.945 287.091  1.00  0.00    -0.105 SA
BRANCH  23  24
HETATM   24  C18 UNL     1     168.640 188.861 287.449  1.00  0.00     0.119 C 
BRANCH  24  25
HETATM   25  C19 UNL     1     168.646 190.249 286.855  1.00  0.00    -0.049 A 
HETATM   26  C20 UNL     1     168.665 190.426 285.458  1.00  0.00     0.008 A 
HETATM   27  C21 UNL     1     168.658 191.717 284.915  1.00  0.00     0.001 A 
HETATM   28  C22 UNL     1     168.651 192.835 285.755  1.00  0.00     0.000 A 
HETATM   29  C23 UNL     1     168.627 192.664 287.141  1.00  0.00     0.001 A 
HETATM   30  C24 UNL     1     168.617 191.380 287.694  1.00  0.00     0.008 A 
ENDBRANCH  24  25
ENDBRANCH  23  24
ENDBRANCH  10  23
TORSDOF 8
ENDMDL
MODEL 3
REMARK VINA RESULT:      -7.5     13.007     16.552
REMARK  8 active torsions:
REMARK  status: ('A' for Active; 'I' for Inactive)
REMARK    1  A    between atoms: N2_7  and  C6_8 
REMARK    2  A    between atoms: C6_8  and  C7_9 
REMARK    3  A    between atoms: C7_9  and  N3_10 
REMARK    4  A    between atoms: N3_10  and  C8_11 
REMARK    5  A    between atoms: C8_11  and  C9_12 
REMARK    6  A    between atoms: C17_21  and  S1_22 
REMARK    7  A    between atoms: S1_22  and  C18_23 
REMARK    8  A    between atoms: C18_23  and  C19_24 
ROOT
HETATM    1  C9  UNL     1     175.254 187.187 272.411  1.00  0.00     0.006 A 
HETATM    2  C10 UNL     1     176.442 187.304 273.160  1.00  0.00     0.025 A 
HETATM    3  C11 UNL     1     176.647 186.502 274.287  1.00  0.00    -0.007 A 
HETATM    4  C12 UNL     1     177.845 186.559 275.017  1.00  0.00     0.014 A 
HETATM    5  C13 UNL     1     178.030 185.719 276.123  1.00  0.00     0.001 A 
HETATM    6  C14 UNL     1     177.018 184.839 276.517  1.00  0.00     0.002 A 
HETATM    7  C15 UNL     1     175.824 184.774 275.793  1.00  0.00     0.032 A 
HETATM    8  C16 UNL     1     175.639 185.597 274.676  1.00  0.00     0.068 A 
HETATM    9  N4  UNL     1     174.493 185.514 273.953  1.00  0.00    -0.241 NA
HETATM   10  C17 UNL     1     174.269 186.271 272.845  1.00  0.00     0.102 A 
ENDROOT
BRANCH   1  11
HETATM   11  C8  UNL     1     175.075 188.019 271.162  1.00  0.00     0.311 C 
BRANCH  11  12
HETATM   12  N3  UNL     1     175.774 189.300 271.291  1.00  0.00     0.089 N 
HETATM   13  H16 UNL     1     176.794 189.101 271.420  1.00  0.00     0.316 HD
BRANCH  12  14
HETATM   14  C7  UNL     1     175.616 190.142 270.095  1.00  0.00     0.300 C 
BRANCH  14  15
HETATM   15  C6  UNL     1     175.621 191.618 270.503  1.00  0.00     0.302 C 
BRANCH  15  16
HETATM   16  N2  UNL     1     174.526 191.899 271.460  1.00  0.00     0.093 N 
HETATM   17  C3  UNL     1     174.667 193.256 272.025  1.00  0.00     0.302 C 
HETATM   18  C2  UNL     1     173.550 193.525 273.040  1.00  0.00     0.302 C 
HETATM   19  N1  UNL     1     172.234 193.382 272.389  1.00  0.00     0.087 N 
HETATM   20  C1  UNL     1     171.162 193.636 273.363  1.00  0.00     0.310 C 
HETATM   21  C4  UNL     1     172.093 192.026 271.832  1.00  0.00     0.302 C 
HETATM   22  C5  UNL     1     173.205 191.760 270.813  1.00  0.00     0.302 C 
ENDBRANCH  15  16
ENDBRANCH  14  15
ENDBRANCH  12  14
ENDBRANCH  11  12
ENDBRANCH   1  11
BRANCH  10  23
HETATM   23  S1  UNL     1     172.730 186.014 271.951  1.00  0.00    -0.105 SA
BRANCH  23  24
HETATM   24  C18 UNL     1     172.991 184.230 271.633  1.00  0.00     0.119 C 
BRANCH  24  25
HETATM   25  C19 UNL     1     174.197 183.973 270.763  1.00  0.00    -0.049 A 
HETATM   26  C20 UNL     1     174.334 184.630 269.524  1.00  0.00     0.008 A 
HETATM   27  C21 UNL     1     175.462 184.396 268.728  1.00  0.00     0.001 A 
HETATM   28  C22 UNL     1     176.448 183.497 269.148  1.00  0.00     0.000 A 
HETATM   29  C23 UNL     1     176.318 182.846 270.378  1.00  0.00     0.001 A 
HETATM   30  C24 UNL     1     175.204 183.085 271.188  1.00  0.00     0.008 A 
ENDBRANCH  24  25
ENDBRANCH  23  24
ENDBRANCH  10  23
TORSDOF 8
ENDMDL
MODEL 4
REMARK VINA RESULT:      -7.4      4.003      6.706
REMARK  8 active torsions:
REMARK  status: ('A' for Active; 'I' for Inactive)
REMARK    1  A    between atoms: N2_7  and  C6_8 
REMARK    2  A    between atoms: C6_8  and  C7_9 
REMARK    3  A    between atoms: C7_9  and  N3_10 
REMARK    4  A    between atoms: N3_10  and  C8_11 
REMARK    5  A    between atoms: C8_11  and  C9_12 
REMARK    6  A    between atoms: C17_21  and  S1_22 
REMARK    7  A    between atoms: S1_22  and  C18_23 
REMARK    8  A    between atoms: C18_23  and  C19_24 
ROOT
HETATM    1  C9  UNL     1     173.556 186.451 282.817  1.00  0.00     0.006 A 
HETATM    2  C10 UNL     1     173.128 185.471 283.734  1.00  0.00     0.025 A 
HETATM    3  C11 UNL     1     172.681 185.843 285.007  1.00  0.00    -0.007 A 
HETATM    4  C12 UNL     1     172.197 184.892 285.918  1.00  0.00     0.014 A 
HETATM    5  C13 UNL     1     171.728 185.303 287.173  1.00  0.00     0.001 A 
HETATM    6  C14 UNL     1     171.762 186.653 287.531  1.00  0.00     0.002 A 
HETATM    7  C15 UNL     1     172.241 187.606 286.628  1.00  0.00     0.032 A 
HETATM    8  C16 UNL     1     172.693 187.206 285.365  1.00  0.00     0.068 A 
HETATM    9  N4  UNL     1     173.129 188.133 284.474  1.00  0.00    -0.241 NA
HETATM   10  C17 UNL     1     173.557 187.804 283.225  1.00  0.00     0.102 A 
ENDROOT
BRANCH   1  11
HETATM   11  C8  UNL     1     173.978 186.038 281.426  1.00  0.00     0.311 C 
BRANCH  11  12
HETATM   12  N3  UNL     1     172.809 185.673 280.620  1.00  0.00     0.089 N 
HETATM   13  H16 UNL     1     171.951 185.973 281.139  1.00  0.00     0.316 HD
BRANCH  12  14
HETATM   14  C7  UNL     1     172.811 186.338 279.308  1.00  0.00     0.300 C 
BRANCH  14  15
HETATM   15  C6  UNL     1     174.227 186.819 278.979  1.00  0.00     0.302 C 
BRANCH  15  16
HETATM   16  N2  UNL     1     174.484 186.730 277.523  1.00  0.00     0.093 N 
HETATM   17  C3  UNL     1     175.908 186.435 277.265  1.00  0.00     0.302 C 
HETATM   18  C2  UNL     1     176.171 186.380 275.755  1.00  0.00     0.302 C 
HETATM   19  N1  UNL     1     175.320 185.349 275.133  1.00  0.00     0.087 N 
HETATM   20  C1  UNL     1     175.569 185.298 273.685  1.00  0.00     0.310 C 
HETATM   21  C4  UNL     1     173.900 185.650 275.387  1.00  0.00     0.302 C 
HETATM   22  C5  UNL     1     173.635 185.697 276.894  1.00  0.00     0.302 C 
ENDBRANCH  15  16
ENDBRANCH  14  15
ENDBRANCH  12  14
ENDBRANCH  11  12
ENDBRANCH   1  11
BRANCH  10  23
HETATM   23  S1  UNL     1     174.052 189.142 282.130  1.00  0.00    -0.105 SA
BRANCH  23  24
HETATM   24  C18 UNL     1     172.398 189.405 281.391  1.00  0.00     0.119 C 
BRANCH  24  25
HETATM   25  C19 UNL     1     171.625 190.497 282.091  1.00  0.00    -0.049 A 
HETATM   26  C20 UNL     1     170.556 190.174 282.949  1.00  0.00     0.008 A 
HETATM   27  C21 UNL     1     169.851 191.193 283.604  1.00  0.00     0.001 A 
HETATM   28  C22 UNL     1     170.192 192.533 283.396  1.00  0.00     0.000 A 
HETATM   29  C23 UNL     1     171.255 192.857 282.548  1.00  0.00     0.001 A 
HETATM   30  C24 UNL     1     171.975 191.848 281.903  1.00  0.00     0.008 A 
ENDBRANCH  24  25
ENDBRANCH  23  24
ENDBRANCH  10  23
TORSDOF 8
ENDMDL
MODEL 5
REMARK VINA RESULT:      -7.3      3.179      8.902
REMARK  8 active torsions:
REMARK  status: ('A' for Active; 'I' for Inactive)
REMARK    1  A    between atoms: N2_7  and  C6_8 
REMARK    2  A    between atoms: C6_8  and  C7_9 
REMARK    3  A    between atoms: C7_9  and  N3_10 
REMARK    4  A    between atoms: N3_10  and  C8_11 
REMARK    5  A    between atoms: C8_11  and  C9_12 
REMARK    6  A    between atoms: C17_21  and  S1_22 
REMARK    7  A    between atoms: S1_22  and  C18_23 
REMARK    8  A    between atoms: C18_23  and  C19_24 
ROOT
HETATM    1  C9  UNL     1     172.655 187.639 283.373  1.00  0.00     0.006 A 
HETATM    2  C10 UNL     1     171.739 188.640 283.752  1.00  0.00     0.025 A 
HETATM    3  C11 UNL     1     171.734 189.877 283.098  1.00  0.00    -0.007 A 
HETATM    4  C12 UNL     1     170.794 190.869 283.418  1.00  0.00     0.014 A 
HETATM    5  C13 UNL     1     170.798 192.084 282.721  1.00  0.00     0.001 A 
HETATM    6  C14 UNL     1     171.747 192.322 281.723  1.00  0.00     0.002 A 
HETATM    7  C15 UNL     1     172.683 191.338 281.397  1.00  0.00     0.032 A 
HETATM    8  C16 UNL     1     172.675 190.114 282.075  1.00  0.00     0.068 A 
HETATM    9  N4  UNL     1     173.563 189.143 281.739  1.00  0.00    -0.241 NA
HETATM   10  C17 UNL     1     173.584 187.927 282.348  1.00  0.00     0.102 A 
ENDROOT
BRANCH   1  11
HETATM   11  C8  UNL     1     172.607 186.289 284.050  1.00  0.00     0.311 C 
BRANCH  11  12
HETATM   12  N3  UNL     1     173.506 186.261 285.207  1.00  0.00     0.089 N 
HETATM   13  H16 UNL     1     174.089 187.130 285.186  1.00  0.00     0.316 HD
BRANCH  12  14
HETATM   14  C7  UNL     1     172.770 186.230 286.481  1.00  0.00     0.300 C 
BRANCH  14  15
HETATM   15  C6  UNL     1     172.859 187.602 287.157  1.00  0.00     0.302 C 
BRANCH  15  16
HETATM   16  N2  UNL     1     172.909 187.456 288.630  1.00  0.00     0.093 N 
HETATM   17  C3  UNL     1     171.627 187.867 289.236  1.00  0.00     0.302 C 
HETATM   18  C2  UNL     1     171.700 187.745 290.762  1.00  0.00     0.302 C 
HETATM   19  N1  UNL     1     172.017 186.356 291.142  1.00  0.00     0.087 N 
HETATM   20  C1  UNL     1     172.091 186.240 292.606  1.00  0.00     0.310 C 
HETATM   21  C4  UNL     1     173.300 185.952 290.542  1.00  0.00     0.302 C 
HETATM   22  C5  UNL     1     173.225 186.066 289.017  1.00  0.00     0.302 C 
ENDBRANCH  15  16
ENDBRANCH  14  15
ENDBRANCH  12  14
ENDBRANCH  11  12
ENDBRANCH   1  11
BRANCH  10  23
HETATM   23  S1  UNL     1     174.778 186.718 281.760  1.00  0.00    -0.105 SA
BRANCH  23  24
HETATM   24  C18 UNL     1     174.912 187.391 280.063  1.00  0.00     0.119 C 
BRANCH  24  25
HETATM   25  C19 UNL     1     173.989 186.692 279.095  1.00  0.00    -0.049 A 
HETATM   26  C20 UNL     1     172.752 186.181 279.533  1.00  0.00     0.008 A 
HETATM   27  C21 UNL     1     171.896 185.544 278.626  1.00  0.00     0.001 A 
HETATM   28  C22 UNL     1     172.270 185.397 277.286  1.00  0.00     0.000 A 
HETATM   29  C23 UNL     1     173.495 185.907 276.846  1.00  0.00     0.001 A 
HETATM   30  C24 UNL     1     174.350 186.558 277.740  1.00  0.00     0.008 A 
ENDBRANCH  24  25
ENDBRANCH  23  24
ENDBRANCH  10  23
TORSDOF 8
ENDMDL
MODEL 6
REMARK VINA RESULT:      -7.1      4.271     11.264
REMARK  8 active torsions:
REMARK  status: ('A' for Active; 'I' for Inactive)
REMARK    1  A    between atoms: N2_7  and  C6_8 
REMARK    2  A    between atoms: C6_8  and  C7_9 
REMARK    3  A    between atoms: C7_9  and  N3_10 
REMARK    4  A    between atoms: N3_10  and  C8_11 
REMARK    5  A    between atoms: C8_11  and  C9_12 
REMARK    6  A    between atoms: C17_21  and  S1_22 
REMARK    7  A    between atoms: S1_22  and  C18_23 
REMARK    8  A    between atoms: C18_23  and  C19_24 
ROOT
HETATM    1  C9  UNL     1     174.201 186.471 278.229  1.00  0.00     0.006 A 
HETATM    2  C10 UNL     1     175.467 186.797 277.705  1.00  0.00     0.025 A 
HETATM    3  C11 UNL     1     175.816 186.407 276.407  1.00  0.00    -0.007 A 
HETATM    4  C12 UNL     1     177.049 186.768 275.841  1.00  0.00     0.014 A 
HETATM    5  C13 UNL     1     177.353 186.387 274.528  1.00  0.00     0.001 A 
HETATM    6  C14 UNL     1     176.444 185.629 273.785  1.00  0.00     0.002 A 
HETATM    7  C15 UNL     1     175.213 185.268 274.341  1.00  0.00     0.032 A 
HETATM    8  C16 UNL     1     174.894 185.661 275.646  1.00  0.00     0.068 A 
HETATM    9  N4  UNL     1     173.686 185.338 276.177  1.00  0.00    -0.241 NA
HETATM   10  C17 UNL     1     173.314 185.714 277.430  1.00  0.00     0.102 A 
ENDROOT
BRANCH   1  11
HETATM   11  C8  UNL     1     173.819 186.952 279.609  1.00  0.00     0.311 C 
BRANCH  11  12
HETATM   12  N3  UNL     1     175.015 187.184 280.424  1.00  0.00     0.089 N 
HETATM   13  H16 UNL     1     175.455 188.078 280.105  1.00  0.00     0.316 HD
BRANCH  12  14
HETATM   14  C7  UNL     1     174.695 187.311 281.855  1.00  0.00     0.300 C 
BRANCH  14  15
HETATM   15  C6  UNL     1     175.560 186.337 282.661  1.00  0.00     0.302 C 
BRANCH  15  16
HETATM   16  N2  UNL     1     175.050 186.211 284.046  1.00  0.00     0.093 N 
HETATM   17  C3  UNL     1     173.739 186.877 284.179  1.00  0.00     0.302 C 
HETATM   18  C2  UNL     1     173.237 186.772 285.624  1.00  0.00     0.302 C 
HETATM   19  N1  UNL     1     173.127 185.355 286.017  1.00  0.00     0.087 N 
HETATM   20  C1  UNL     1     172.648 185.253 287.403  1.00  0.00     0.310 C 
HETATM   21  C4  UNL     1     174.438 184.695 285.889  1.00  0.00     0.302 C 
HETATM   22  C5  UNL     1     174.936 184.793 284.445  1.00  0.00     0.302 C 
ENDBRANCH  15  16
ENDBRANCH  14  15
ENDBRANCH  12  14
ENDBRANCH  11  12
ENDBRANCH   1  11
BRANCH  10  23
HETATM   23  S1  UNL     1     171.662 185.267 277.981  1.00  0.00    -0.105 SA
BRANCH  23  24
HETATM   24  C18 UNL     1     170.771 186.407 276.860  1.00  0.00     0.119 C 
BRANCH  24  25
HETATM   25  C19 UNL     1     170.579 187.775 277.467  1.00  0.00    -0.049 A 
HETATM   26  C20 UNL     1     170.440 187.922 278.861  1.00  0.00     0.008 A 
HETATM   27  C21 UNL     1     170.274 189.197 279.418  1.00  0.00     0.001 A 
HETATM   28  C22 UNL     1     170.228 190.326 278.595  1.00  0.00     0.000 A 
HETATM   29  C23 UNL     1     170.371 190.185 277.212  1.00  0.00     0.001 A 
HETATM   30  C24 UNL     1     170.553 188.920 276.647  1.00  0.00     0.008 A 
ENDBRANCH  24  25
ENDBRANCH  23  24
ENDBRANCH  10  23
TORSDOF 8
ENDMDL
MODEL 7
REMARK VINA RESULT:      -7.1      1.765      4.303
REMARK  8 active torsions:
REMARK  status: ('A' for Active; 'I' for Inactive)
REMARK    1  A    between atoms: N2_7  and  C6_8 
REMARK    2  A    between atoms: C6_8  and  C7_9 
REMARK    3  A    between atoms: C7_9  and  N3_10 
REMARK    4  A    between atoms: N3_10  and  C8_11 
REMARK    5  A    between atoms: C8_11  and  C9_12 
REMARK    6  A    between atoms: C17_21  and  S1_22 
REMARK    7  A    between atoms: S1_22  and  C18_23 
REMARK    8  A    between atoms: C18_23  and  C19_24 
ROOT
HETATM    1  C9  UNL     1     172.456 187.004 287.520  1.00  0.00     0.006 A 
HETATM    2  C10 UNL     1     172.029 187.541 286.290  1.00  0.00     0.025 A 
HETATM    3  C11 UNL     1     170.822 188.244 286.208  1.00  0.00    -0.007 A 
HETATM    4  C12 UNL     1     170.402 188.837 285.007  1.00  0.00     0.014 A 
HETATM    5  C13 UNL     1     169.203 189.560 284.967  1.00  0.00     0.001 A 
HETATM    6  C14 UNL     1     168.411 189.675 286.114  1.00  0.00     0.002 A 
HETATM    7  C15 UNL     1     168.824 189.090 287.313  1.00  0.00     0.032 A 
HETATM    8  C16 UNL     1     170.030 188.382 287.366  1.00  0.00     0.068 A 
HETATM    9  N4  UNL     1     170.450 187.839 288.538  1.00  0.00    -0.241 NA
HETATM   10  C17 UNL     1     171.624 187.162 288.652  1.00  0.00     0.102 A 
ENDROOT
BRANCH   1  11
HETATM   11  C8  UNL     1     173.791 186.300 287.604  1.00  0.00     0.311 C 
BRANCH  11  12
HETATM   12  N3  UNL     1     173.626 184.858 287.404  1.00  0.00     0.089 N 
HETATM   13  H16 UNL     1     172.612 184.627 287.529  1.00  0.00     0.316 HD
BRANCH  12  14
HETATM   14  C7  UNL     1     174.032 184.435 286.055  1.00  0.00     0.300 C 
BRANCH  14  15
HETATM   15  C6  UNL     1     175.078 185.409 285.506  1.00  0.00     0.302 C 
BRANCH  15  16
HETATM   16  N2  UNL     1     174.625 185.993 284.222  1.00  0.00     0.093 N 
HETATM   17  C3  UNL     1     175.671 185.847 283.189  1.00  0.00     0.302 C 
HETATM   18  C2  UNL     1     175.207 186.485 281.874  1.00  0.00     0.302 C 
HETATM   19  N1  UNL     1     173.955 185.851 281.421  1.00  0.00     0.087 N 
HETATM   20  C1  UNL     1     173.508 186.465 280.162  1.00  0.00     0.310 C 
HETATM   21  C4  UNL     1     172.913 186.004 282.450  1.00  0.00     0.302 C 
HETATM   22  C5  UNL     1     173.372 185.360 283.761  1.00  0.00     0.302 C 
ENDBRANCH  15  16
ENDBRANCH  14  15
ENDBRANCH  12  14
ENDBRANCH  11  12
ENDBRANCH   1  11
BRANCH  10  23
HETATM   23  S1  UNL     1     172.081 186.548 290.279  1.00  0.00    -0.105 SA
BRANCH  23  24
HETATM   24  C18 UNL     1     171.381 187.954 291.218  1.00  0.00     0.119 C 
BRANCH  24  25
HETATM   25  C19 UNL     1     170.279 187.525 292.156  1.00  0.00    -0.049 A 
HETATM   26  C20 UNL     1     168.955 187.403 291.691  1.00  0.00     0.008 A 
HETATM   27  C21 UNL     1     167.940 186.992 292.565  1.00  0.00     0.001 A 
HETATM   28  C22 UNL     1     168.232 186.720 293.905  1.00  0.00     0.000 A 
HETATM   29  C23 UNL     1     169.544 186.836 294.370  1.00  0.00     0.001 A 
HETATM   30  C24 UNL     1     170.567 187.229 293.502  1.00  0.00     0.008 A 
ENDBRANCH  24  25
ENDBRANCH  23  24
ENDBRANCH  10  23
TORSDOF 8
ENDMDL
MODEL 8
REMARK VINA RESULT:      -7.1     13.341     17.110
REMARK  8 active torsions:
REMARK  status: ('A' for Active; 'I' for Inactive)
REMARK    1  A    between atoms: N2_7  and  C6_8 
REMARK    2  A    between atoms: C6_8  and  C7_9 
REMARK    3  A    between atoms: C7_9  and  N3_10 
REMARK    4  A    between atoms: N3_10  and  C8_11 
REMARK    5  A    between atoms: C8_11  and  C9_12 
REMARK    6  A    between atoms: C17_21  and  S1_22 
REMARK    7  A    between atoms: S1_22  and  C18_23 
REMARK    8  A    between atoms: C18_23  and  C19_24 
ROOT
HETATM    1  C9  UNL     1     174.277 185.481 272.681  1.00  0.00     0.006 A 
HETATM    2  C10 UNL     1     174.616 184.910 273.923  1.00  0.00     0.025 A 
HETATM    3  C11 UNL     1     175.796 185.287 274.574  1.00  0.00    -0.007 A 
HETATM    4  C12 UNL     1     176.129 184.775 275.838  1.00  0.00     0.014 A 
HETATM    5  C13 UNL     1     177.302 185.197 276.476  1.00  0.00     0.001 A 
HETATM    6  C14 UNL     1     178.155 186.110 275.850  1.00  0.00     0.002 A 
HETATM    7  C15 UNL     1     177.829 186.626 274.592  1.00  0.00     0.032 A 
HETATM    8  C16 UNL     1     176.649 186.224 273.957  1.00  0.00     0.068 A 
HETATM    9  N4  UNL     1     176.314 186.747 272.750  1.00  0.00    -0.241 NA
HETATM   10  C17 UNL     1     175.169 186.410 272.098  1.00  0.00     0.102 A 
ENDROOT
BRANCH   1  11
HETATM   11  C8  UNL     1     172.970 185.108 272.020  1.00  0.00     0.311 C 
BRANCH  11  12
HETATM   12  N3  UNL     1     173.018 183.728 271.527  1.00  0.00     0.089 N 
HETATM   13  H16 UNL     1     172.113 183.265 271.772  1.00  0.00     0.316 HD
BRANCH  12  14
HETATM   14  C7  UNL     1     173.188 183.666 270.067  1.00  0.00     0.300 C 
BRANCH  14  15
HETATM   15  C6  UNL     1     174.662 183.423 269.732  1.00  0.00     0.302 C 
BRANCH  15  16
HETATM   16  N2  UNL     1     174.877 183.451 268.267  1.00  0.00     0.093 N 
HETATM   17  C3  UNL     1     174.211 184.625 267.668  1.00  0.00     0.302 C 
HETATM   18  C2  UNL     1     174.409 184.627 266.147  1.00  0.00     0.302 C 
HETATM   19  N1  UNL     1     175.848 184.642 265.827  1.00  0.00     0.087 N 
HETATM   20  C1  UNL     1     176.039 184.640 264.369  1.00  0.00     0.310 C 
HETATM   21  C4  UNL     1     176.508 183.466 266.420  1.00  0.00     0.302 C 
HETATM   22  C5  UNL     1     176.317 183.469 267.939  1.00  0.00     0.302 C 
ENDBRANCH  15  16
ENDBRANCH  14  15
ENDBRANCH  12  14
ENDBRANCH  11  12
ENDBRANCH   1  11
BRANCH  10  23
HETATM   23  S1  UNL     1     174.825 187.227 270.533  1.00  0.00    -0.105 SA
BRANCH  23  24
HETATM   24  C18 UNL     1     173.678 188.478 271.219  1.00  0.00     0.119 C 
BRANCH  24  25
HETATM   25  C19 UNL     1     174.250 189.873 271.161  1.00  0.00    -0.049 A 
HETATM   26  C20 UNL     1     175.538 190.093 270.634  1.00  0.00     0.008 A 
HETATM   27  C21 UNL     1     176.057 191.393 270.573  1.00  0.00     0.001 A 
HETATM   28  C22 UNL     1     175.310 192.474 271.050  1.00  0.00     0.000 A 
HETATM   29  C23 UNL     1     174.031 192.261 271.570  1.00  0.00     0.001 A 
HETATM   30  C24 UNL     1     173.496 190.971 271.621  1.00  0.00     0.008 A 
ENDBRANCH  24  25
ENDBRANCH  23  24
ENDBRANCH  10  23
TORSDOF 8
ENDMDL
MODEL 9
REMARK VINA RESULT:      -7.1      3.681      9.648
REMARK  8 active torsions:
REMARK  status: ('A' for Active; 'I' for Inactive)
REMARK    1  A    between atoms: N2_7  and  C6_8 
REMARK    2  A    between atoms: C6_8  and  C7_9 
REMARK    3  A    between atoms: C7_9  and  N3_10 
REMARK    4  A    between atoms: N3_10  and  C8_11 
REMARK    5  A    between atoms: C8_11  and  C9_12 
REMARK    6  A    between atoms: C17_21  and  S1_22 
REMARK    7  A    between atoms: S1_22  and  C18_23 
REMARK    8  A    between atoms: C18_23  and  C19_24 
ROOT
HETATM    1  C9  UNL     1     173.426 187.543 281.160  1.00  0.00     0.006 A 
HETATM    2  C10 UNL     1     173.345 188.714 281.938  1.00  0.00     0.025 A 
HETATM    3  C11 UNL     1     172.354 189.667 281.678  1.00  0.00    -0.007 A 
HETATM    4  C12 UNL     1     172.216 190.815 282.474  1.00  0.00     0.014 A 
HETATM    5  C13 UNL     1     171.193 191.733 282.205  1.00  0.00     0.001 A 
HETATM    6  C14 UNL     1     170.321 191.523 281.132  1.00  0.00     0.002 A 
HETATM    7  C15 UNL     1     170.451 190.381 280.337  1.00  0.00     0.032 A 
HETATM    8  C16 UNL     1     171.458 189.449 280.611  1.00  0.00     0.068 A 
HETATM    9  N4  UNL     1     171.566 188.323 279.860  1.00  0.00    -0.241 NA
HETATM   10  C17 UNL     1     172.511 187.374 280.097  1.00  0.00     0.102 A 
ENDROOT
BRANCH   1  11
HETATM   11  C8  UNL     1     174.464 186.496 281.493  1.00  0.00     0.311 C 
BRANCH  11  12
HETATM   12  N3  UNL     1     174.799 186.538 282.919  1.00  0.00     0.089 N 
HETATM   13  H16 UNL     1     174.619 187.509 283.266  1.00  0.00     0.316 HD
BRANCH  12  14
HETATM   14  C7  UNL     1     173.978 185.607 283.709  1.00  0.00     0.300 C 
BRANCH  14  15
HETATM   15  C6  UNL     1     174.730 185.219 284.986  1.00  0.00     0.302 C 
BRANCH  15  16
HETATM   16  N2  UNL     1     173.923 185.542 286.185  1.00  0.00     0.093 N 
HETATM   17  C3  UNL     1     174.784 185.628 287.382  1.00  0.00     0.302 C 
HETATM   18  C2  UNL     1     173.936 185.928 288.623  1.00  0.00     0.302 C 
HETATM   19  N1  UNL     1     173.199 187.192 288.437  1.00  0.00     0.087 N 
HETATM   20  C1  UNL     1     172.383 187.478 289.626  1.00  0.00     0.310 C 
HETATM   21  C4  UNL     1     172.336 187.100 287.247  1.00  0.00     0.302 C 
HETATM   22  C5  UNL     1     173.184 186.809 286.006  1.00  0.00     0.302 C 
ENDBRANCH  15  16
ENDBRANCH  14  15
ENDBRANCH  12  14
ENDBRANCH  11  12
ENDBRANCH   1  11
BRANCH  10  23
HETATM   23  S1  UNL     1     172.499 185.905 279.058  1.00  0.00    -0.105 SA
BRANCH  23  24
HETATM   24  C18 UNL     1     172.899 186.772 277.497  1.00  0.00     0.119 C 
BRANCH  24  25
HETATM   25  C19 UNL     1     174.205 186.305 276.901  1.00  0.00    -0.049 A 
HETATM   26  C20 UNL     1     174.214 185.355 275.861  1.00  0.00     0.008 A 
HETATM   27  C21 UNL     1     175.429 184.936 275.305  1.00  0.00     0.001 A 
HETATM   28  C22 UNL     1     176.639 185.443 275.789  1.00  0.00     0.000 A 
HETATM   29  C23 UNL     1     176.635 186.389 276.817  1.00  0.00     0.001 A 
HETATM   30  C24 UNL     1     175.427 186.827 277.368  1.00  0.00     0.008 A 
ENDBRANCH  24  25
ENDBRANCH  23  24
ENDBRANCH  10  23
TORSDOF 8
ENDMDL
