MODEL 1
REMARK VINA RESULT:      -7.8      0.000      0.000
REMARK  11 active torsions:
REMARK  status: ('A' for Active; 'I' for Inactive)
REMARK    1  A    between atoms: C_1  and  C_20 
REMARK    2  A    between atoms: C_5  and  S_27 
REMARK    3  A    between atoms: C_6  and  C_8 
REMARK    4  A    between atoms: C_8  and  N_9 
REMARK    5  A    between atoms: N_9  and  C_10 
REMARK    6  A    between atoms: C_10  and  C_11 
REMARK    7  A    between atoms: C_11  and  C_12 
REMARK    8  A    between atoms: N_15  and  C_18 
REMARK    9  A    between atoms: C_23  and  O_35 
REMARK   10  A    between atoms: S_27  and  C_34 
REMARK   11  A    between atoms: C_28  and  C_34 
ROOT
HETATM    1  C           1     173.462 186.431 281.043  0.00  0.00    -0.010 A 
HETATM    2  C           1     174.563 186.903 280.345  0.00  0.00     0.101 A 
HETATM    3  N           1     174.588 187.069 279.005  0.00  0.00    -0.359 N 
ATOM      4  HN          1     175.417 187.420 278.525  1.00  0.00     0.166 HD
HETATM    5  C           1     173.461 186.748 278.333  0.00  0.00     0.077 A 
HETATM    6  C           1     172.311 186.269 278.942  0.00  0.00     0.004 A 
HETATM    7  C           1     172.315 186.109 280.324  0.00  0.00     0.025 A 
ENDROOT
BRANCH   6   8
HETATM    8  C           1     171.097 185.935 278.133  0.00  0.00     0.307 C 
BRANCH   8   9
HETATM    9  N           1     169.994 186.750 278.565  0.00  0.00     0.087 N 
HETATM   10  H           1     169.149 186.181 278.613  0.00  0.00     0.316 HD
BRANCH   9  11
HETATM   11  C           1     169.815 187.794 277.591  0.00  0.00     0.270 C 
BRANCH  11  12
HETATM   12  C           1     170.416 189.089 278.119  0.00  0.00     0.034 C 
BRANCH  12  13
HETATM   13  C           1     170.046 189.259 279.588  0.00  0.00    -0.010 C 
HETATM   14  C           1     171.293 189.649 280.377  0.00  0.00     0.035 C 
HETATM   15  C           1     170.943 190.021 281.816  0.00  0.00     0.272 C 
HETATM   16  N           1     169.935 191.081 281.866  0.00  0.00     0.088 N 
HETATM   17  C           1     168.706 190.683 281.177  0.00  0.00     0.272 C 
HETATM   18  C           1     168.974 190.336 279.713  0.00  0.00     0.035 C 
BRANCH  16  19
HETATM   19  C           1     169.617 191.261 283.256  0.00  0.00     0.268 C 
HETATM   20  C           1     169.890 189.968 284.013  0.00  0.00     0.037 C 
ENDBRANCH  16  19
ENDBRANCH  12  13
ENDBRANCH  11  12
ENDBRANCH   9  11
ENDBRANCH   8   9
ENDBRANCH   6   8
BRANCH   5  21
HETATM   21  S           1     173.451 186.956 276.531  0.00  0.00    -0.107 SA
BRANCH  21  22
HETATM   22  C           1     174.335 185.403 276.219  0.00  0.00     0.122 C 
BRANCH  22  23
HETATM   23  C           1     175.715 185.704 275.722  0.00  0.00    -0.049 A 
HETATM   24  C           1     176.806 185.591 276.584  0.00  0.00     0.008 A 
HETATM   25  C           1     178.093 185.871 276.121  0.00  0.00     0.001 A 
HETATM   26  C           1     178.287 186.264 274.796  0.00  0.00     0.000 A 
HETATM   27  C           1     177.196 186.375 273.935  0.00  0.00     0.001 A 
HETATM   28  C           1     175.910 186.096 274.397  0.00  0.00     0.008 A 
ENDBRANCH  22  23
ENDBRANCH  21  22
ENDBRANCH   5  21
BRANCH   1  29
HETATM   29  C           1     173.501 186.289 282.372  0.00  0.00    -0.021 A 
HETATM   30  C           1     174.305 185.304 282.944  0.00  0.00     0.057 A 
HETATM   31  C           1     174.346 185.156 284.330  0.00  0.00     0.150 A 
HETATM   32  F           1     175.107 184.224 284.872  0.00  0.00    -0.203 F 
HETATM   33  C           1     173.583 185.993 285.145  0.00  0.00     0.106 A 
HETATM   34  C           1     172.778 186.978 284.572  0.00  0.00     0.041 A 
HETATM   35  C           1     172.737 187.126 283.185  0.00  0.00     0.015 A 
BRANCH  33  36
HETATM   36  O           1     173.622 185.849 286.491  0.00  0.00    -0.353 OA
HETATM   37  C           1     172.635 184.952 286.924  0.00  0.00     0.210 C 
ENDBRANCH  33  36
ENDBRANCH   1  29
TORSDOF 11
ENDMDL
MODEL 2
REMARK VINA RESULT:      -7.7      7.298      9.645
REMARK  11 active torsions:
REMARK  status: ('A' for Active; 'I' for Inactive)
REMARK    1  A    between atoms: C_1  and  C_20 
REMARK    2  A    between atoms: C_5  and  S_27 
REMARK    3  A    between atoms: C_6  and  C_8 
REMARK    4  A    between atoms: C_8  and  N_9 
REMARK    5  A    between atoms: N_9  and  C_10 
REMARK    6  A    between atoms: C_10  and  C_11 
REMARK    7  A    between atoms: C_11  and  C_12 
REMARK    8  A    between atoms: N_15  and  C_18 
REMARK    9  A    between atoms: C_23  and  O_35 
REMARK   10  A    between atoms: S_27  and  C_34 
REMARK   11  A    between atoms: C_28  and  C_34 
ROOT
HETATM    1  C           1     175.269 185.364 272.062  0.00  0.00    -0.010 A 
HETATM    2  C           1     176.128 184.965 271.051  0.00  0.00     0.101 A 
HETATM    3  N           1     175.740 184.755 269.774  0.00  0.00    -0.359 N 
ATOM      4  HN          1     176.401 184.461 269.055  1.00  0.00     0.166 HD
HETATM    5  C           1     174.432 184.953 269.499  0.00  0.00     0.077 A 
HETATM    6  C           1     173.498 185.353 270.441  0.00  0.00     0.004 A 
HETATM    7  C           1     173.928 185.561 271.748  0.00  0.00     0.025 A 
ENDROOT
BRANCH   6   8
HETATM    8  C           1     172.064 185.555 270.063  0.00  0.00     0.307 C 
BRANCH   8   9
HETATM    9  N           1     171.760 186.961 270.069  0.00  0.00     0.087 N 
HETATM   10  H           1     172.586 187.486 270.357  0.00  0.00     0.316 HD
BRANCH   9  11
HETATM   11  C           1     170.700 187.175 271.018  0.00  0.00     0.270 C 
BRANCH  11  12
HETATM   12  C           1     171.153 188.186 272.063  0.00  0.00     0.034 C 
BRANCH  12  13
HETATM   13  C           1     172.188 189.120 271.451  0.00  0.00    -0.010 C 
HETATM   14  C           1     171.598 190.524 271.346  0.00  0.00     0.035 C 
HETATM   15  C           1     172.657 191.539 270.922  0.00  0.00     0.272 C 
HETATM   16  N           1     173.811 191.519 271.822  0.00  0.00     0.088 N 
HETATM   17  C           1     174.430 190.194 271.868  0.00  0.00     0.272 C 
HETATM   18  C           1     173.436 189.128 272.328  0.00  0.00     0.035 C 
BRANCH  16  19
HETATM   19  C           1     174.770 192.430 271.259  0.00  0.00     0.268 C 
HETATM   20  C           1     175.833 191.645 270.501  0.00  0.00     0.037 C 
ENDBRANCH  16  19
ENDBRANCH  12  13
ENDBRANCH  11  12
ENDBRANCH   9  11
ENDBRANCH   8   9
ENDBRANCH   6   8
BRANCH   5  21
HETATM   21  S           1     173.867 184.683 267.796  0.00  0.00    -0.107 SA
BRANCH  21  22
HETATM   22  C           1     174.832 186.063 267.121  0.00  0.00     0.122 C 
BRANCH  22  23
HETATM   23  C           1     174.051 187.333 267.254  0.00  0.00    -0.049 A 
HETATM   24  C           1     172.786 187.436 266.677  0.00  0.00     0.008 A 
HETATM   25  C           1     172.057 188.620 266.802  0.00  0.00     0.001 A 
HETATM   26  C           1     172.594 189.699 267.504  0.00  0.00     0.000 A 
HETATM   27  C           1     173.859 189.594 268.081  0.00  0.00     0.001 A 
HETATM   28  C           1     174.588 188.411 267.957  0.00  0.00     0.008 A 
ENDBRANCH  22  23
ENDBRANCH  21  22
ENDBRANCH   5  21
BRANCH   1  29
HETATM   29  C           1     175.717 185.555 273.308  0.00  0.00    -0.021 A 
HETATM   30  C           1     174.909 185.231 274.396  0.00  0.00     0.057 A 
HETATM   31  C           1     175.375 185.430 275.695  0.00  0.00     0.150 A 
HETATM   32  F           1     174.611 185.122 276.726  0.00  0.00    -0.203 F 
HETATM   33  C           1     176.652 185.953 275.906  0.00  0.00     0.106 A 
HETATM   34  C           1     177.461 186.278 274.816  0.00  0.00     0.041 A 
HETATM   35  C           1     176.992 186.079 273.517  0.00  0.00     0.015 A 
BRANCH  33  36
HETATM   36  O           1     177.105 186.146 277.167  0.00  0.00    -0.353 OA
HETATM   37  C           1     178.431 185.709 277.292  0.00  0.00     0.210 C 
ENDBRANCH  33  36
ENDBRANCH   1  29
TORSDOF 11
ENDMDL
MODEL 3
REMARK VINA RESULT:      -7.6      7.890     10.876
REMARK  11 active torsions:
REMARK  status: ('A' for Active; 'I' for Inactive)
REMARK    1  A    between atoms: C_1  and  C_20 
REMARK    2  A    between atoms: C_5  and  S_27 
REMARK    3  A    between atoms: C_6  and  C_8 
REMARK    4  A    between atoms: C_8  and  N_9 
REMARK    5  A    between atoms: N_9  and  C_10 
REMARK    6  A    between atoms: C_10  and  C_11 
REMARK    7  A    between atoms: C_11  and  C_12 
REMARK    8  A    between atoms: N_15  and  C_18 
REMARK    9  A    between atoms: C_23  and  O_35 
REMARK   10  A    between atoms: S_27  and  C_34 
REMARK   11  A    between atoms: C_28  and  C_34 
ROOT
HETATM    1  C           1     174.433 189.548 269.845  0.00  0.00    -0.010 A 
HETATM    2  C           1     174.949 189.596 268.560  0.00  0.00     0.101 A 
HETATM    3  N           1     175.001 188.530 267.731  0.00  0.00    -0.359 N 
ATOM      4  HN          1     175.388 188.602 266.790  1.00  0.00     0.166 HD
HETATM    5  C           1     174.515 187.365 268.212  0.00  0.00     0.077 A 
HETATM    6  C           1     173.979 187.219 269.482  0.00  0.00     0.004 A 
HETATM    7  C           1     173.939 188.334 270.313  0.00  0.00     0.025 A 
ENDROOT
BRANCH   6   8
HETATM    8  C           1     173.457 185.895 269.947  0.00  0.00     0.307 C 
BRANCH   8   9
HETATM    9  N           1     172.439 186.105 270.942  0.00  0.00     0.087 N 
HETATM   10  H           1     172.298 187.106 271.078  0.00  0.00     0.316 HD
BRANCH   9  11
HETATM   11  C           1     172.901 185.514 272.170  0.00  0.00     0.270 C 
BRANCH  11  12
HETATM   12  C           1     174.116 184.640 271.887  0.00  0.00     0.034 C 
BRANCH  12  13
HETATM   13  C           1     175.156 184.845 272.981  0.00  0.00    -0.010 C 
HETATM   14  C           1     176.104 185.967 272.567  0.00  0.00     0.035 C 
HETATM   15  C           1     177.044 186.347 273.709  0.00  0.00     0.272 C 
HETATM   16  N           1     176.302 186.704 274.919  0.00  0.00     0.088 N 
HETATM   17  C           1     175.447 185.604 275.367  0.00  0.00     0.272 C 
HETATM   18  C           1     174.448 185.197 274.285  0.00  0.00     0.035 C 
BRANCH  16  19
HETATM   19  C           1     177.290 186.932 275.938  0.00  0.00     0.268 C 
HETATM   20  C           1     177.810 185.596 276.451  0.00  0.00     0.037 C 
ENDBRANCH  16  19
ENDBRANCH  12  13
ENDBRANCH  11  12
ENDBRANCH   9  11
ENDBRANCH   8   9
ENDBRANCH   6   8
BRANCH   5  21
HETATM   21  S           1     174.564 185.908 267.133  0.00  0.00    -0.107 SA
BRANCH  21  22
HETATM   22  C           1     176.264 185.468 267.590  0.00  0.00     0.122 C 
BRANCH  22  23
HETATM   23  C           1     176.254 184.217 268.412  0.00  0.00    -0.049 A 
HETATM   24  C           1     177.009 184.145 269.582  0.00  0.00     0.008 A 
HETATM   25  C           1     176.999 182.979 270.348  0.00  0.00     0.001 A 
HETATM   26  C           1     176.233 181.886 269.944  0.00  0.00     0.000 A 
HETATM   27  C           1     175.477 181.958 268.775  0.00  0.00     0.001 A 
HETATM   28  C           1     175.487 183.124 268.008  0.00  0.00     0.008 A 
ENDBRANCH  22  23
ENDBRANCH  21  22
ENDBRANCH   5  21
BRANCH   1  29
HETATM   29  C           1     174.411 190.640 270.617  0.00  0.00    -0.021 A 
HETATM   30  C           1     173.386 190.817 271.546  0.00  0.00     0.057 A 
HETATM   31  C           1     173.363 191.955 272.351  0.00  0.00     0.150 A 
HETATM   32  F           1     172.394 192.122 273.230  0.00  0.00    -0.203 F 
HETATM   33  C           1     174.365 192.918 272.227  0.00  0.00     0.106 A 
HETATM   34  C           1     175.390 192.742 271.297  0.00  0.00     0.041 A 
HETATM   35  C           1     175.413 191.603 270.492  0.00  0.00     0.015 A 
BRANCH  33  36
HETATM   36  O           1     174.343 194.024 273.008  0.00  0.00    -0.353 OA
HETATM   37  C           1     175.144 193.847 274.145  0.00  0.00     0.210 C 
ENDBRANCH  33  36
ENDBRANCH   1  29
TORSDOF 11
ENDMDL
MODEL 4
REMARK VINA RESULT:      -7.5      2.270      4.057
REMARK  11 active torsions:
REMARK  status: ('A' for Active; 'I' for Inactive)
REMARK    1  A    between atoms: C_1  and  C_20 
REMARK    2  A    between atoms: C_5  and  S_27 
REMARK    3  A    between atoms: C_6  and  C_8 
REMARK    4  A    between atoms: C_8  and  N_9 
REMARK    5  A    between atoms: N_9  and  C_10 
REMARK    6  A    between atoms: C_10  and  C_11 
REMARK    7  A    between atoms: C_11  and  C_12 
REMARK    8  A    between atoms: N_15  and  C_18 
REMARK    9  A    between atoms: C_23  and  O_35 
REMARK   10  A    between atoms: S_27  and  C_34 
REMARK   11  A    between atoms: C_28  and  C_34 
ROOT
HETATM    1  C           1     173.747 186.149 281.710  0.00  0.00    -0.010 A 
HETATM    2  C           1     174.869 186.789 281.207  0.00  0.00     0.101 A 
HETATM    3  N           1     175.034 187.103 279.903  0.00  0.00    -0.359 N 
ATOM      4  HN          1     175.874 187.575 279.569  1.00  0.00     0.166 HD
HETATM    5  C           1     174.030 186.761 279.066  0.00  0.00     0.077 A 
HETATM    6  C           1     172.871 186.120 279.474  0.00  0.00     0.004 A 
HETATM    7  C           1     172.729 185.809 280.823  0.00  0.00     0.025 A 
ENDROOT
BRANCH   6   8
HETATM    8  C           1     171.798 185.773 278.489  0.00  0.00     0.307 C 
BRANCH   8   9
HETATM    9  N           1     170.576 186.436 278.857  0.00  0.00     0.087 N 
HETATM   10  H           1     169.787 185.813 278.687  0.00  0.00     0.316 HD
BRANCH   9  11
HETATM   11  C           1     170.450 187.607 278.031  0.00  0.00     0.270 C 
BRANCH  11  12
HETATM   12  C           1     169.732 187.242 276.739  0.00  0.00     0.034 C 
BRANCH  12  13
HETATM   13  C           1     170.381 187.975 275.572  0.00  0.00    -0.010 C 
HETATM   14  C           1     171.034 189.255 276.085  0.00  0.00     0.035 C 
HETATM   15  C           1     171.865 189.928 274.995  0.00  0.00     0.272 C 
HETATM   16  N           1     172.864 189.013 274.441  0.00  0.00     0.088 N 
HETATM   17  C           1     172.239 187.817 273.877  0.00  0.00     0.272 C 
HETATM   18  C           1     171.422 187.066 274.927  0.00  0.00     0.035 C 
BRANCH  16  19
HETATM   19  C           1     173.499 189.724 273.364  0.00  0.00     0.268 C 
HETATM   20  C           1     174.657 188.897 272.822  0.00  0.00     0.037 C 
ENDBRANCH  16  19
ENDBRANCH  12  13
ENDBRANCH  11  12
ENDBRANCH   9  11
ENDBRANCH   8   9
ENDBRANCH   6   8
BRANCH   5  21
HETATM   21  S           1     174.210 187.164 277.306  0.00  0.00    -0.107 SA
BRANCH  21  22
HETATM   22  C           1     175.016 185.592 276.897  0.00  0.00     0.122 C 
BRANCH  22  23
HETATM   23  C           1     175.559 185.656 275.503  0.00  0.00    -0.049 A 
HETATM   24  C           1     176.819 186.208 275.271  0.00  0.00     0.008 A 
HETATM   25  C           1     177.326 186.268 273.972  0.00  0.00     0.001 A 
HETATM   26  C           1     176.572 185.775 272.906  0.00  0.00     0.000 A 
HETATM   27  C           1     175.314 185.222 273.139  0.00  0.00     0.001 A 
HETATM   28  C           1     174.807 185.162 274.437  0.00  0.00     0.008 A 
ENDBRANCH  22  23
ENDBRANCH  21  22
ENDBRANCH   5  21
BRANCH   1  29
HETATM   29  C           1     173.645 185.865 283.012  0.00  0.00    -0.021 A 
HETATM   30  C           1     174.555 184.995 283.609  0.00  0.00     0.057 A 
HETATM   31  C           1     174.448 184.699 284.968  0.00  0.00     0.150 A 
HETATM   32  F           1     175.310 183.875 285.534  0.00  0.00    -0.203 F 
HETATM   33  C           1     173.431 185.274 285.730  0.00  0.00     0.106 A 
HETATM   34  C           1     172.519 186.145 285.132  0.00  0.00     0.041 A 
HETATM   35  C           1     172.627 186.440 283.773  0.00  0.00     0.015 A 
BRANCH  33  36
HETATM   36  O           1     173.327 184.987 287.050  0.00  0.00    -0.353 OA
HETATM   37  C           1     174.025 185.928 287.820  0.00  0.00     0.210 C 
ENDBRANCH  33  36
ENDBRANCH   1  29
TORSDOF 11
ENDMDL
MODEL 5
REMARK VINA RESULT:      -7.5      3.528      8.606
REMARK  11 active torsions:
REMARK  status: ('A' for Active; 'I' for Inactive)
REMARK    1  A    between atoms: C_1  and  C_20 
REMARK    2  A    between atoms: C_5  and  S_27 
REMARK    3  A    between atoms: C_6  and  C_8 
REMARK    4  A    between atoms: C_8  and  N_9 
REMARK    5  A    between atoms: N_9  and  C_10 
REMARK    6  A    between atoms: C_10  and  C_11 
REMARK    7  A    between atoms: C_11  and  C_12 
REMARK    8  A    between atoms: N_15  and  C_18 
REMARK    9  A    between atoms: C_23  and  O_35 
REMARK   10  A    between atoms: S_27  and  C_34 
REMARK   11  A    between atoms: C_28  and  C_34 
ROOT
HETATM    1  C           1     173.798 186.772 278.113  0.00  0.00    -0.010 A 
HETATM    2  C           1     172.468 187.148 278.216  0.00  0.00     0.101 A 
HETATM    3  N           1     171.913 187.644 279.343  0.00  0.00    -0.359 N 
ATOM      4  HN          1     170.929 187.911 279.382  1.00  0.00     0.166 HD
HETATM    5  C           1     172.725 187.768 280.415  0.00  0.00     0.077 A 
HETATM    6  C           1     174.067 187.420 280.410  0.00  0.00     0.004 A 
HETATM    7  C           1     174.611 186.912 279.235  0.00  0.00     0.025 A 
ENDROOT
BRANCH   6   8
HETATM    8  C           1     174.908 187.586 281.637  0.00  0.00     0.307 C 
BRANCH   8   9
HETATM    9  N           1     176.024 186.681 281.579  0.00  0.00     0.087 N 
HETATM   10  H           1     175.919 186.063 280.774  0.00  0.00     0.316 HD
BRANCH   9  11
HETATM   11  C           1     176.016 185.901 282.788  0.00  0.00     0.270 C 
BRANCH  11  12
HETATM   12  C           1     174.862 184.909 282.743  0.00  0.00     0.034 C 
BRANCH  12  13
HETATM   13  C           1     174.303 184.717 284.147  0.00  0.00    -0.010 C 
HETATM   14  C           1     175.275 185.315 285.160  0.00  0.00     0.035 C 
HETATM   15  C           1     174.675 185.326 286.564  0.00  0.00     0.272 C 
HETATM   16  N           1     173.390 186.024 286.593  0.00  0.00     0.088 N 
HETATM   17  C           1     172.425 185.408 285.681  0.00  0.00     0.272 C 
HETATM   18  C           1     172.943 185.401 284.243  0.00  0.00     0.035 C 
BRANCH  16  19
HETATM   19  C           1     172.884 185.871 287.930  0.00  0.00     0.268 C 
HETATM   20  C           1     174.040 185.928 288.921  0.00  0.00     0.037 C 
ENDBRANCH  16  19
ENDBRANCH  12  13
ENDBRANCH  11  12
ENDBRANCH   9  11
ENDBRANCH   8   9
ENDBRANCH   6   8
BRANCH   5  21
HETATM   21  S           1     172.020 188.431 281.950  0.00  0.00    -0.107 SA
BRANCH  21  22
HETATM   22  C           1     171.452 189.970 281.175  0.00  0.00     0.122 C 
BRANCH  22  23
HETATM   23  C           1     170.893 190.881 282.224  0.00  0.00    -0.049 A 
HETATM   24  C           1     169.787 190.483 282.975  0.00  0.00     0.008 A 
HETATM   25  C           1     169.266 191.332 283.953  0.00  0.00     0.001 A 
HETATM   26  C           1     169.852 192.578 284.178  0.00  0.00     0.000 A 
HETATM   27  C           1     170.957 192.975 283.428  0.00  0.00     0.001 A 
HETATM   28  C           1     171.479 192.127 282.450  0.00  0.00     0.008 A 
ENDBRANCH  22  23
ENDBRANCH  21  22
ENDBRANCH   5  21
BRANCH   1  29
HETATM   29  C           1     174.288 186.287 276.968  0.00  0.00    -0.021 A 
HETATM   30  C           1     175.664 186.128 276.810  0.00  0.00     0.057 A 
HETATM   31  C           1     176.175 185.621 275.615  0.00  0.00     0.150 A 
HETATM   32  F           1     177.477 185.470 275.465  0.00  0.00    -0.203 F 
HETATM   33  C           1     175.309 185.273 274.577  0.00  0.00     0.106 A 
HETATM   34  C           1     173.932 185.433 274.735  0.00  0.00     0.041 A 
HETATM   35  C           1     173.422 185.940 275.931  0.00  0.00     0.015 A 
BRANCH  33  36
HETATM   36  O           1     175.805 184.782 273.417  0.00  0.00    -0.353 OA
HETATM   37  C           1     176.125 185.822 272.532  0.00  0.00     0.210 C 
ENDBRANCH  33  36
ENDBRANCH   1  29
TORSDOF 11
ENDMDL
MODEL 6
REMARK VINA RESULT:      -7.5      3.186      8.028
REMARK  11 active torsions:
REMARK  status: ('A' for Active; 'I' for Inactive)
REMARK    1  A    between atoms: C_1  and  C_20 
REMARK    2  A    between atoms: C_5  and  S_27 
REMARK    3  A    between atoms: C_6  and  C_8 
REMARK    4  A    between atoms: C_8  and  N_9 
REMARK    5  A    between atoms: N_9  and  C_10 
REMARK    6  A    between atoms: C_10  and  C_11 
REMARK    7  A    between atoms: C_11  and  C_12 
REMARK    8  A    between atoms: N_15  and  C_18 
REMARK    9  A    between atoms: C_23  and  O_35 
REMARK   10  A    between atoms: S_27  and  C_34 
REMARK   11  A    between atoms: C_28  and  C_34 
ROOT
HETATM    1  C           1     172.582 189.379 282.487  0.00  0.00    -0.010 A 
HETATM    2  C           1     173.570 189.265 283.452  0.00  0.00     0.101 A 
HETATM    3  N           1     174.524 188.309 283.441  0.00  0.00    -0.359 N 
ATOM      4  HN          1     175.237 188.255 284.169  1.00  0.00     0.166 HD
HETATM    5  C           1     174.486 187.427 282.418  0.00  0.00     0.077 A 
HETATM    6  C           1     173.538 187.460 281.407  0.00  0.00     0.004 A 
HETATM    7  C           1     172.569 188.457 281.445  0.00  0.00     0.025 A 
ENDROOT
BRANCH   6   8
HETATM    8  C           1     173.559 186.450 280.302  0.00  0.00     0.307 C 
BRANCH   8   9
HETATM    9  N           1     172.233 186.300 279.766  0.00  0.00     0.087 N 
HETATM   10  H           1     171.619 185.910 280.482  0.00  0.00     0.316 HD
BRANCH   9  11
HETATM   11  C           1     172.312 185.389 278.655  0.00  0.00     0.270 C 
BRANCH  11  12
HETATM   12  C           1     172.473 186.179 277.362  0.00  0.00     0.034 C 
BRANCH  12  13
HETATM   13  C           1     173.767 185.766 276.673  0.00  0.00    -0.010 C 
HETATM   14  C           1     173.524 185.666 275.169  0.00  0.00     0.035 C 
HETATM   15  C           1     174.831 185.447 274.411  0.00  0.00     0.272 C 
HETATM   16  N           1     175.811 186.489 274.718  0.00  0.00     0.088 N 
HETATM   17  C           1     176.108 186.540 276.150  0.00  0.00     0.272 C 
HETATM   18  C           1     174.847 186.800 276.973  0.00  0.00     0.035 C 
BRANCH  16  19
HETATM   19  C           1     177.019 186.113 274.034  0.00  0.00     0.268 C 
HETATM   20  C           1     178.217 186.376 274.937  0.00  0.00     0.037 C 
ENDBRANCH  16  19
ENDBRANCH  12  13
ENDBRANCH  11  12
ENDBRANCH   9  11
ENDBRANCH   8   9
ENDBRANCH   6   8
BRANCH   5  21
HETATM   21  S           1     175.749 186.126 282.363  0.00  0.00    -0.107 SA
BRANCH  21  22
HETATM   22  C           1     174.564 184.785 282.661  0.00  0.00     0.122 C 
BRANCH  22  23
HETATM   23  C           1     174.066 184.862 284.071  0.00  0.00    -0.049 A 
HETATM   24  C           1     172.724 185.146 284.321  0.00  0.00     0.008 A 
HETATM   25  C           1     172.259 185.216 285.636  0.00  0.00     0.001 A 
HETATM   26  C           1     173.138 185.003 286.698  0.00  0.00     0.000 A 
HETATM   27  C           1     174.479 184.718 286.447  0.00  0.00     0.001 A 
HETATM   28  C           1     174.944 184.647 285.133  0.00  0.00     0.008 A 
ENDBRANCH  22  23
ENDBRANCH  21  22
ENDBRANCH   5  21
BRANCH   1  29
HETATM   29  C           1     171.665 190.350 282.556  0.00  0.00    -0.021 A 
HETATM   30  C           1     170.521 190.174 283.333  0.00  0.00     0.057 A 
HETATM   31  C           1     169.564 191.187 283.405  0.00  0.00     0.150 A 
HETATM   32  F           1     168.482 191.021 284.142  0.00  0.00    -0.203 F 
HETATM   33  C           1     169.752 192.376 282.699  0.00  0.00     0.106 A 
HETATM   34  C           1     170.896 192.551 281.920  0.00  0.00     0.041 A 
HETATM   35  C           1     171.852 191.537 281.849  0.00  0.00     0.015 A 
BRANCH  33  36
HETATM   36  O           1     168.823 193.358 282.768  0.00  0.00    -0.353 OA
HETATM   37  C           1     169.107 194.378 281.849  0.00  0.00     0.210 C 
ENDBRANCH  33  36
ENDBRANCH   1  29
TORSDOF 11
ENDMDL
MODEL 7
REMARK VINA RESULT:      -7.4      8.017     12.958
REMARK  11 active torsions:
REMARK  status: ('A' for Active; 'I' for Inactive)
REMARK    1  A    between atoms: C_1  and  C_20 
REMARK    2  A    between atoms: C_5  and  S_27 
REMARK    3  A    between atoms: C_6  and  C_8 
REMARK    4  A    between atoms: C_8  and  N_9 
REMARK    5  A    between atoms: N_9  and  C_10 
REMARK    6  A    between atoms: C_10  and  C_11 
REMARK    7  A    between atoms: C_11  and  C_12 
REMARK    8  A    between atoms: N_15  and  C_18 
REMARK    9  A    between atoms: C_23  and  O_35 
REMARK   10  A    between atoms: S_27  and  C_34 
REMARK   11  A    between atoms: C_28  and  C_34 
ROOT
HETATM    1  C           1     175.509 185.581 272.068  0.00  0.00    -0.010 A 
HETATM    2  C           1     174.332 186.208 271.691  0.00  0.00     0.101 A 
HETATM    3  N           1     173.786 186.103 270.460  0.00  0.00    -0.359 N 
ATOM      4  HN          1     172.917 186.578 270.217  1.00  0.00     0.166 HD
HETATM    5  C           1     174.450 185.338 269.566  0.00  0.00     0.077 A 
HETATM    6  C           1     175.633 184.673 269.849  0.00  0.00     0.004 A 
HETATM    7  C           1     176.170 184.799 271.126  0.00  0.00     0.025 A 
ENDROOT
BRANCH   6   8
HETATM    8  C           1     176.314 183.840 268.808  0.00  0.00     0.307 C 
BRANCH   8   9
HETATM    9  N           1     177.378 184.599 268.208  0.00  0.00     0.087 N 
HETATM   10  H           1     177.144 185.592 268.234  0.00  0.00     0.316 HD
BRANCH   9  11
HETATM   11  C           1     177.501 184.171 266.840  0.00  0.00     0.270 C 
BRANCH  11  12
HETATM   12  C           1     176.630 182.942 266.613  0.00  0.00     0.034 C 
BRANCH  12  13
HETATM   13  C           1     176.013 183.008 265.222  0.00  0.00    -0.010 C 
HETATM   14  C           1     174.571 182.513 265.289  0.00  0.00     0.035 C 
HETATM   15  C           1     173.844 182.741 263.965  0.00  0.00     0.272 C 
HETATM   16  N           1     173.901 184.146 263.557  0.00  0.00     0.088 N 
HETATM   17  C           1     175.283 184.606 263.415  0.00  0.00     0.272 C 
HETATM   18  C           1     176.062 184.447 264.720  0.00  0.00     0.035 C 
BRANCH  16  19
HETATM   19  C           1     173.284 184.207 262.260  0.00  0.00     0.268 C 
HETATM   20  C           1     173.285 185.647 261.764  0.00  0.00     0.037 C 
ENDBRANCH  16  19
ENDBRANCH  12  13
ENDBRANCH  11  12
ENDBRANCH   9  11
ENDBRANCH   8   9
ENDBRANCH   6   8
BRANCH   5  21
HETATM   21  S           1     173.753 185.169 267.900  0.00  0.00    -0.107 SA
BRANCH  21  22
HETATM   22  C           1     174.605 186.636 267.257  0.00  0.00     0.122 C 
BRANCH  22  23
HETATM   23  C           1     173.656 187.795 267.232  0.00  0.00    -0.049 A 
HETATM   24  C           1     174.043 189.024 267.767  0.00  0.00     0.008 A 
HETATM   25  C           1     173.159 190.104 267.743  0.00  0.00     0.001 A 
HETATM   26  C           1     171.890 189.954 267.185  0.00  0.00     0.000 A 
HETATM   27  C           1     171.504 188.726 266.650  0.00  0.00     0.001 A 
HETATM   28  C           1     172.387 187.645 266.673  0.00  0.00     0.008 A 
ENDBRANCH  22  23
ENDBRANCH  21  22
ENDBRANCH   5  21
BRANCH   1  29
HETATM   29  C           1     175.997 185.725 273.305  0.00  0.00    -0.021 A 
HETATM   30  C           1     175.237 185.331 274.405  0.00  0.00     0.057 A 
HETATM   31  C           1     175.747 185.480 275.694  0.00  0.00     0.150 A 
HETATM   32  F           1     175.027 185.107 276.736  0.00  0.00    -0.203 F 
HETATM   33  C           1     177.018 186.025 275.884  0.00  0.00     0.106 A 
HETATM   34  C           1     177.778 186.420 274.783  0.00  0.00     0.041 A 
HETATM   35  C           1     177.267 186.270 273.494  0.00  0.00     0.015 A 
BRANCH  33  36
HETATM   36  O           1     177.512 186.170 277.136  0.00  0.00    -0.353 OA
HETATM   37  C           1     178.619 185.333 277.335  0.00  0.00     0.210 C 
ENDBRANCH  33  36
ENDBRANCH   1  29
TORSDOF 11
ENDMDL
MODEL 8
REMARK VINA RESULT:      -7.4      7.121     10.811
REMARK  11 active torsions:
REMARK  status: ('A' for Active; 'I' for Inactive)
REMARK    1  A    between atoms: C_1  and  C_20 
REMARK    2  A    between atoms: C_5  and  S_27 
REMARK    3  A    between atoms: C_6  and  C_8 
REMARK    4  A    between atoms: C_8  and  N_9 
REMARK    5  A    between atoms: N_9  and  C_10 
REMARK    6  A    between atoms: C_10  and  C_11 
REMARK    7  A    between atoms: C_11  and  C_12 
REMARK    8  A    between atoms: N_15  and  C_18 
REMARK    9  A    between atoms: C_23  and  O_35 
REMARK   10  A    between atoms: S_27  and  C_34 
REMARK   11  A    between atoms: C_28  and  C_34 
ROOT
HETATM    1  C           1     175.582 184.751 271.235  0.00  0.00    -0.010 A 
HETATM    2  C           1     176.046 183.499 270.865  0.00  0.00     0.101 A 
HETATM    3  N           1     175.958 183.006 269.610  0.00  0.00    -0.359 N 
ATOM      4  HN          1     176.312 182.079 269.373  1.00  0.00     0.166 HD
HETATM    5  C           1     175.380 183.802 268.685  0.00  0.00     0.077 A 
HETATM    6  C           1     174.886 185.069 268.959  0.00  0.00     0.004 A 
HETATM    7  C           1     174.990 185.549 270.260  0.00  0.00     0.025 A 
ENDROOT
BRANCH   6   8
HETATM    8  C           1     174.257 185.897 267.882  0.00  0.00     0.307 C 
BRANCH   8   9
HETATM    9  N           1     175.092 187.035 267.604  0.00  0.00     0.087 N 
HETATM   10  H           1     175.856 187.069 268.279  0.00  0.00     0.316 HD
BRANCH   9  11
HETATM   11  C           1     174.279 188.215 267.741  0.00  0.00     0.270 C 
BRANCH  11  12
HETATM   12  C           1     175.079 189.302 268.447  0.00  0.00     0.034 C 
BRANCH  12  13
HETATM   13  C           1     174.520 189.517 269.847  0.00  0.00    -0.010 C 
HETATM   14  C           1     173.168 188.818 269.959  0.00  0.00     0.035 C 
HETATM   15  C           1     172.653 188.835 271.397  0.00  0.00     0.272 C 
HETATM   16  N           1     173.626 188.251 272.321  0.00  0.00     0.088 N 
HETATM   17  C           1     174.902 188.965 272.276  0.00  0.00     0.272 C 
HETATM   18  C           1     175.500 188.952 270.870  0.00  0.00     0.035 C 
BRANCH  16  19
HETATM   19  C           1     173.075 188.424 273.638  0.00  0.00     0.268 C 
HETATM   20  C           1     174.065 189.188 274.507  0.00  0.00     0.037 C 
ENDBRANCH  16  19
ENDBRANCH  12  13
ENDBRANCH  11  12
ENDBRANCH   9  11
ENDBRANCH   8   9
ENDBRANCH   6   8
BRANCH   5  21
HETATM   21  S           1     175.241 183.180 266.987  0.00  0.00    -0.107 SA
BRANCH  21  22
HETATM   22  C           1     176.917 183.699 266.524  0.00  0.00     0.122 C 
BRANCH  22  23
HETATM   23  C           1     177.261 183.137 265.179  0.00  0.00    -0.049 A 
HETATM   24  C           1     176.923 183.840 264.023  0.00  0.00     0.008 A 
HETATM   25  C           1     177.244 183.317 262.770  0.00  0.00     0.001 A 
HETATM   26  C           1     177.904 182.092 262.674  0.00  0.00     0.000 A 
HETATM   27  C           1     178.243 181.390 263.829  0.00  0.00     0.001 A 
HETATM   28  C           1     177.922 181.912 265.083  0.00  0.00     0.008 A 
ENDBRANCH  22  23
ENDBRANCH  21  22
ENDBRANCH   5  21
BRANCH   1  29
HETATM   29  C           1     175.699 185.182 272.495  0.00  0.00    -0.021 A 
HETATM   30  C           1     174.683 184.927 273.415  0.00  0.00     0.057 A 
HETATM   31  C           1     174.805 185.375 274.731  0.00  0.00     0.150 A 
HETATM   32  F           1     173.844 185.134 275.602  0.00  0.00    -0.203 F 
HETATM   33  C           1     175.943 186.079 275.126  0.00  0.00     0.106 A 
HETATM   34  C           1     176.959 186.334 274.204  0.00  0.00     0.041 A 
HETATM   35  C           1     176.837 185.886 272.889  0.00  0.00     0.015 A 
BRANCH  33  36
HETATM   36  O           1     176.061 186.515 276.402  0.00  0.00    -0.353 OA
HETATM   37  C           1     177.366 186.319 276.877  0.00  0.00     0.210 C 
ENDBRANCH  33  36
ENDBRANCH   1  29
TORSDOF 11
ENDMDL
MODEL 9
REMARK VINA RESULT:      -7.3      7.477     10.434
REMARK  11 active torsions:
REMARK  status: ('A' for Active; 'I' for Inactive)
REMARK    1  A    between atoms: C_1  and  C_20 
REMARK    2  A    between atoms: C_5  and  S_27 
REMARK    3  A    between atoms: C_6  and  C_8 
REMARK    4  A    between atoms: C_8  and  N_9 
REMARK    5  A    between atoms: N_9  and  C_10 
REMARK    6  A    between atoms: C_10  and  C_11 
REMARK    7  A    between atoms: C_11  and  C_12 
REMARK    8  A    between atoms: N_15  and  C_18 
REMARK    9  A    between atoms: C_23  and  O_35 
REMARK   10  A    between atoms: S_27  and  C_34 
REMARK   11  A    between atoms: C_28  and  C_34 
ROOT
HETATM    1  C           1     175.660 185.454 271.895  0.00  0.00    -0.010 A 
HETATM    2  C           1     175.910 184.229 271.296  0.00  0.00     0.101 A 
HETATM    3  N           1     175.644 183.959 269.999  0.00  0.00    -0.359 N 
ATOM      4  HN          1     175.841 183.045 269.592  1.00  0.00     0.166 HD
HETATM    5  C           1     175.104 184.960 269.271  0.00  0.00     0.077 A 
HETATM    6  C           1     174.819 186.218 269.780  0.00  0.00     0.004 A 
HETATM    7  C           1     175.104 186.466 271.119  0.00  0.00     0.025 A 
ENDROOT
BRANCH   6   8
HETATM    8  C           1     174.221 187.281 268.912  0.00  0.00     0.307 C 
BRANCH   8   9
HETATM    9  N           1     175.257 188.175 268.468  0.00  0.00     0.087 N 
HETATM   10  H           1     176.113 187.990 268.991  0.00  0.00     0.316 HD
BRANCH   9  11
HETATM   11  C           1     174.815 189.519 268.731  0.00  0.00     0.270 C 
BRANCH  11  12
HETATM   12  C           1     175.611 190.096 269.894  0.00  0.00     0.034 C 
BRANCH  12  13
HETATM   13  C           1     174.677 190.875 270.812  0.00  0.00    -0.010 C 
HETATM   14  C           1     175.308 192.225 271.140  0.00  0.00     0.035 C 
HETATM   15  C           1     174.331 193.123 271.895  0.00  0.00     0.272 C 
HETATM   16  N           1     173.078 193.293 271.157  0.00  0.00     0.088 N 
HETATM   17  C           1     172.427 192.006 270.906  0.00  0.00     0.272 C 
HETATM   18  C           1     173.335 191.067 270.113  0.00  0.00     0.035 C 
BRANCH  16  19
HETATM   19  C           1     172.214 194.060 272.013  0.00  0.00     0.268 C 
HETATM   20  C           1     170.987 194.506 271.229  0.00  0.00     0.037 C 
ENDBRANCH  16  19
ENDBRANCH  12  13
ENDBRANCH  11  12
ENDBRANCH   9  11
ENDBRANCH   8   9
ENDBRANCH   6   8
BRANCH   5  21
HETATM   21  S           1     174.731 184.642 267.524  0.00  0.00    -0.107 SA
BRANCH  21  22
HETATM   22  C           1     176.473 184.667 267.016  0.00  0.00     0.122 C 
BRANCH  22  23
HETATM   23  C           1     176.592 184.157 265.613  0.00  0.00    -0.049 A 
HETATM   24  C           1     175.835 184.736 264.594  0.00  0.00     0.008 A 
HETATM   25  C           1     175.946 184.261 263.286  0.00  0.00     0.001 A 
HETATM   26  C           1     176.814 183.208 262.999  0.00  0.00     0.000 A 
HETATM   27  C           1     177.571 182.630 264.017  0.00  0.00     0.001 A 
HETATM   28  C           1     177.460 183.104 265.325  0.00  0.00     0.008 A 
ENDBRANCH  22  23
ENDBRANCH  21  22
ENDBRANCH   5  21
BRANCH   1  29
HETATM   29  C           1     175.946 185.658 273.185  0.00  0.00    -0.021 A 
HETATM   30  C           1     175.031 185.287 274.169  0.00  0.00     0.057 A 
HETATM   31  C           1     175.329 185.499 275.515  0.00  0.00     0.150 A 
HETATM   32  F           1     174.463 185.148 276.447  0.00  0.00    -0.203 F 
HETATM   33  C           1     176.544 186.083 275.877  0.00  0.00     0.106 A 
HETATM   34  C           1     177.460 186.454 274.893  0.00  0.00     0.041 A 
HETATM   35  C           1     177.160 186.242 273.547  0.00  0.00     0.015 A 
BRANCH  33  36
HETATM   36  O           1     176.834 186.289 277.184  0.00  0.00    -0.353 OA
HETATM   37  C           1     178.196 186.072 277.432  0.00  0.00     0.210 C 
ENDBRANCH  33  36
ENDBRANCH   1  29
TORSDOF 11
ENDMDL
