MODEL 1
REMARK VINA RESULT:      -6.4      0.000      0.000
REMARK  10 active torsions:
REMARK  status: ('A' for Active; 'I' for Inactive)
REMARK    1  A    between atoms: C_5  and  S_17 
REMARK    2  A    between atoms: C_6  and  C_8 
REMARK    3  A    between atoms: C_8  and  N_9 
REMARK    4  A    between atoms: N_9  and  C_10 
REMARK    5  A    between atoms: C_10  and  C_11 
REMARK    6  A    between atoms: C_11  and  C_12 
REMARK    7  A    between atoms: C_12  and  C_13 
REMARK    8  A    between atoms: C_13  and  N_14 
REMARK    9  A    between atoms: S_17  and  C_24 
REMARK   10  A    between atoms: C_18  and  C_24 
ROOT
HETATM    1  C           1     174.818 184.603 284.573  0.00  0.00     0.018 A 
HETATM    2  C           1     175.037 184.407 285.927  0.00  0.00     0.089 A 
HETATM    3  N           1     174.471 185.158 286.897  0.00  0.00    -0.360 N 
ATOM      4  HN          1     174.656 184.985 287.885  1.00  0.00     0.166 HD
HETATM    5  C           1     173.649 186.151 286.491  0.00  0.00     0.077 A 
HETATM    6  C           1     173.369 186.424 285.162  0.00  0.00     0.003 A 
HETATM    7  C           1     173.967 185.633 284.187  0.00  0.00     0.013 A 
ENDROOT
BRANCH   6   8
HETATM    8  C           1     172.447 187.542 284.785  0.00  0.00     0.307 C 
BRANCH   8   9
HETATM    9  N           1     173.209 188.623 284.220  0.00  0.00     0.087 N 
HETATM   10  H           1     173.056 189.469 284.767  0.00  0.00     0.316 HD
BRANCH   9  11
HETATM   11  C           1     172.742 188.831 282.876  0.00  0.00     0.270 C 
BRANCH  11  12
HETATM   12  C           1     173.932 189.056 281.953  0.00  0.00     0.032 C 
BRANCH  12  13
HETATM   13  C           1     174.258 187.764 281.217  0.00  0.00     0.032 C 
BRANCH  13  14
HETATM   14  C           1     172.965 187.062 280.824  0.00  0.00     0.271 C 
BRANCH  14  15
HETATM   15  N           1     173.218 186.169 279.725  0.00  0.00     0.080 N 
HETATM   16  C           1     171.970 185.946 279.047  0.00  0.00     0.309 C 
HETATM   17  C           1     174.099 186.842 278.810  0.00  0.00     0.309 C 
ENDBRANCH  14  15
ENDBRANCH  13  14
ENDBRANCH  12  13
ENDBRANCH  11  12
ENDBRANCH   9  11
ENDBRANCH   8   9
ENDBRANCH   6   8
BRANCH   5  18
HETATM   18  S           1     172.868 187.186 287.760  0.00  0.00    -0.107 SA
BRANCH  18  19
HETATM   19  C           1     173.457 186.161 289.138  0.00  0.00     0.122 C 
BRANCH  19  20
HETATM   20  C           1     172.733 186.544 290.391  0.00  0.00    -0.049 A 
HETATM   21  C           1     172.782 185.711 291.508  0.00  0.00     0.008 A 
HETATM   22  C           1     172.107 186.067 292.675  0.00  0.00     0.001 A 
HETATM   23  C           1     171.382 187.258 292.726  0.00  0.00     0.000 A 
HETATM   24  C           1     171.332 188.092 291.608  0.00  0.00     0.001 A 
HETATM   25  C           1     172.007 187.734 290.441  0.00  0.00     0.008 A 
ENDBRANCH  19  20
ENDBRANCH  18  19
ENDBRANCH   5  18
TORSDOF 10
ENDMDL
MODEL 2
REMARK VINA RESULT:      -6.4      2.595      4.363
REMARK  10 active torsions:
REMARK  status: ('A' for Active; 'I' for Inactive)
REMARK    1  A    between atoms: C_5  and  S_17 
REMARK    2  A    between atoms: C_6  and  C_8 
REMARK    3  A    between atoms: C_8  and  N_9 
REMARK    4  A    between atoms: N_9  and  C_10 
REMARK    5  A    between atoms: C_10  and  C_11 
REMARK    6  A    between atoms: C_11  and  C_12 
REMARK    7  A    between atoms: C_12  and  C_13 
REMARK    8  A    between atoms: C_13  and  N_14 
REMARK    9  A    between atoms: S_17  and  C_24 
REMARK   10  A    between atoms: C_18  and  C_24 
ROOT
HETATM    1  C           1     170.586 188.464 286.556  0.00  0.00     0.018 A 
HETATM    2  C           1     169.399 188.342 287.261  0.00  0.00     0.089 A 
HETATM    3  N           1     169.057 187.248 287.974  0.00  0.00    -0.360 N 
ATOM      4  HN          1     168.173 187.193 288.482  1.00  0.00     0.166 HD
HETATM    5  C           1     169.945 186.229 287.982  0.00  0.00     0.077 A 
HETATM    6  C           1     171.156 186.257 287.310  0.00  0.00     0.003 A 
HETATM    7  C           1     171.479 187.398 286.583  0.00  0.00     0.013 A 
ENDROOT
BRANCH   6   8
HETATM    8  C           1     172.091 185.089 287.362  0.00  0.00     0.307 C 
BRANCH   8   9
HETATM    9  N           1     173.102 185.328 288.356  0.00  0.00     0.087 N 
HETATM   10  H           1     172.878 186.179 288.871  0.00  0.00     0.316 HD
BRANCH   9  11
HETATM   11  C           1     174.355 185.499 287.672  0.00  0.00     0.270 C 
BRANCH  11  12
HETATM   12  C           1     174.365 184.651 286.407  0.00  0.00     0.032 C 
BRANCH  12  13
HETATM   13  C           1     175.350 185.240 285.406  0.00  0.00     0.032 C 
BRANCH  13  14
HETATM   14  C           1     174.598 186.099 284.399  0.00  0.00     0.271 C 
BRANCH  14  15
HETATM   15  N           1     173.605 185.300 283.732  0.00  0.00     0.080 N 
HETATM   16  C           1     172.618 186.192 283.188  0.00  0.00     0.309 C 
HETATM   17  C           1     174.249 184.635 282.631  0.00  0.00     0.309 C 
ENDBRANCH  14  15
ENDBRANCH  13  14
ENDBRANCH  12  13
ENDBRANCH  11  12
ENDBRANCH   9  11
ENDBRANCH   8   9
ENDBRANCH   6   8
BRANCH   5  18
HETATM   18  S           1     169.526 184.737 288.928  0.00  0.00    -0.107 SA
BRANCH  18  19
HETATM   19  C           1     168.902 185.666 290.357  0.00  0.00     0.122 C 
BRANCH  19  20
HETATM   20  C           1     170.038 185.993 291.275  0.00  0.00    -0.049 A 
HETATM   21  C           1     171.204 185.229 291.242  0.00  0.00     0.008 A 
HETATM   22  C           1     172.263 185.534 292.097  0.00  0.00     0.001 A 
HETATM   23  C           1     172.156 186.603 292.986  0.00  0.00     0.000 A 
HETATM   24  C           1     170.989 187.368 293.020  0.00  0.00     0.001 A 
HETATM   25  C           1     169.931 187.062 292.164  0.00  0.00     0.008 A 
ENDBRANCH  19  20
ENDBRANCH  18  19
ENDBRANCH   5  18
TORSDOF 10
ENDMDL
MODEL 3
REMARK VINA RESULT:      -6.3      3.426      5.652
REMARK  10 active torsions:
REMARK  status: ('A' for Active; 'I' for Inactive)
REMARK    1  A    between atoms: C_5  and  S_17 
REMARK    2  A    between atoms: C_6  and  C_8 
REMARK    3  A    between atoms: C_8  and  N_9 
REMARK    4  A    between atoms: N_9  and  C_10 
REMARK    5  A    between atoms: C_10  and  C_11 
REMARK    6  A    between atoms: C_11  and  C_12 
REMARK    7  A    between atoms: C_12  and  C_13 
REMARK    8  A    between atoms: C_13  and  N_14 
REMARK    9  A    between atoms: S_17  and  C_24 
REMARK   10  A    between atoms: C_18  and  C_24 
ROOT
HETATM    1  C           1     172.719 189.512 282.261  0.00  0.00     0.018 A 
HETATM    2  C           1     173.542 189.274 283.350  0.00  0.00     0.089 A 
HETATM    3  N           1     174.441 188.267 283.407  0.00  0.00    -0.360 N 
ATOM      4  HN          1     175.031 188.122 284.226  1.00  0.00     0.166 HD
HETATM    5  C           1     174.518 187.463 282.323  0.00  0.00     0.077 A 
HETATM    6  C           1     173.739 187.621 281.189  0.00  0.00     0.003 A 
HETATM    7  C           1     172.822 188.667 281.161  0.00  0.00     0.013 A 
ENDROOT
BRANCH   6   8
HETATM    8  C           1     173.878 186.690 280.024  0.00  0.00     0.307 C 
BRANCH   8   9
HETATM    9  N           1     172.685 185.899 279.896  0.00  0.00     0.087 N 
HETATM   10  H           1     172.709 185.135 280.571  0.00  0.00     0.316 HD
BRANCH   9  11
HETATM   11  C           1     172.658 185.361 278.564  0.00  0.00     0.270 C 
BRANCH  11  12
HETATM   12  C           1     172.835 186.488 277.556  0.00  0.00     0.032 C 
BRANCH  12  13
HETATM   13  C           1     173.883 186.090 276.524  0.00  0.00     0.032 C 
BRANCH  13  14
HETATM   14  C           1     175.032 187.088 276.555  0.00  0.00     0.271 C 
BRANCH  14  15
HETATM   15  N           1     176.281 186.380 276.642  0.00  0.00     0.080 N 
HETATM   16  C           1     176.105 185.103 276.005  0.00  0.00     0.309 C 
HETATM   17  C           1     177.254 187.118 275.883  0.00  0.00     0.309 C 
ENDBRANCH  14  15
ENDBRANCH  13  14
ENDBRANCH  12  13
ENDBRANCH  11  12
ENDBRANCH   9  11
ENDBRANCH   8   9
ENDBRANCH   6   8
BRANCH   5  18
HETATM   18  S           1     175.713 186.097 282.357  0.00  0.00    -0.107 SA
BRANCH  18  19
HETATM   19  C           1     174.446 184.829 282.643  0.00  0.00     0.122 C 
BRANCH  19  20
HETATM   20  C           1     174.010 184.872 284.074  0.00  0.00    -0.049 A 
HETATM   21  C           1     172.683 185.163 284.391  0.00  0.00     0.008 A 
HETATM   22  C           1     172.277 185.203 285.724  0.00  0.00     0.001 A 
HETATM   23  C           1     173.197 184.953 286.742  0.00  0.00     0.000 A 
HETATM   24  C           1     174.525 184.663 286.426  0.00  0.00     0.001 A 
HETATM   25  C           1     174.930 184.623 285.091  0.00  0.00     0.008 A 
ENDBRANCH  19  20
ENDBRANCH  18  19
ENDBRANCH   5  18
TORSDOF 10
ENDMDL
MODEL 4
REMARK VINA RESULT:      -6.2      3.057      8.836
REMARK  10 active torsions:
REMARK  status: ('A' for Active; 'I' for Inactive)
REMARK    1  A    between atoms: C_5  and  S_17 
REMARK    2  A    between atoms: C_6  and  C_8 
REMARK    3  A    between atoms: C_8  and  N_9 
REMARK    4  A    between atoms: N_9  and  C_10 
REMARK    5  A    between atoms: C_10  and  C_11 
REMARK    6  A    between atoms: C_11  and  C_12 
REMARK    7  A    between atoms: C_12  and  C_13 
REMARK    8  A    between atoms: C_13  and  N_14 
REMARK    9  A    between atoms: S_17  and  C_24 
REMARK   10  A    between atoms: C_18  and  C_24 
ROOT
HETATM    1  C           1     173.650 185.545 290.614  0.00  0.00     0.018 A 
HETATM    2  C           1     174.561 185.789 289.598  0.00  0.00     0.089 A 
HETATM    3  N           1     174.223 186.288 288.389  0.00  0.00    -0.360 N 
ATOM      4  HN          1     174.921 186.455 287.665  1.00  0.00     0.166 HD
HETATM    5  C           1     172.913 186.553 288.189  0.00  0.00     0.077 A 
HETATM    6  C           1     171.930 186.343 289.141  0.00  0.00     0.003 A 
HETATM    7  C           1     172.309 185.828 290.377  0.00  0.00     0.013 A 
ENDROOT
BRANCH   6   8
HETATM    8  C           1     170.495 186.660 288.849  0.00  0.00     0.307 C 
BRANCH   8   9
HETATM    9  N           1     169.730 185.443 288.826  0.00  0.00     0.087 N 
HETATM   10  H           1     169.277 185.343 287.919  0.00  0.00     0.316 HD
BRANCH   9  11
HETATM   11  C           1     168.729 185.538 289.854  0.00  0.00     0.270 C 
BRANCH  11  12
HETATM   12  C           1     168.136 186.940 289.858  0.00  0.00     0.032 C 
BRANCH  12  13
HETATM   13  C           1     167.873 187.378 291.294  0.00  0.00     0.032 C 
BRANCH  13  14
HETATM   14  C           1     168.651 186.483 292.248  0.00  0.00     0.271 C 
BRANCH  14  15
HETATM   15  N           1     169.205 187.281 293.310  0.00  0.00     0.080 N 
HETATM   16  C           1     168.597 186.852 294.541  0.00  0.00     0.309 C 
HETATM   17  C           1     170.610 186.986 293.390  0.00  0.00     0.309 C 
ENDBRANCH  14  15
ENDBRANCH  13  14
ENDBRANCH  12  13
ENDBRANCH  11  12
ENDBRANCH   9  11
ENDBRANCH   8   9
ENDBRANCH   6   8
BRANCH   5  18
HETATM   18  S           1     172.414 187.223 286.577  0.00  0.00    -0.107 SA
BRANCH  18  19
HETATM   19  C           1     172.333 185.593 285.783  0.00  0.00     0.122 C 
BRANCH  19  20
HETATM   20  C           1     173.345 185.523 284.683  0.00  0.00    -0.049 A 
HETATM   21  C           1     174.661 185.920 284.919  0.00  0.00     0.008 A 
HETATM   22  C           1     175.605 185.855 283.894  0.00  0.00     0.001 A 
HETATM   23  C           1     175.233 185.392 282.632  0.00  0.00     0.000 A 
HETATM   24  C           1     173.916 184.995 282.395  0.00  0.00     0.001 A 
HETATM   25  C           1     172.973 185.061 283.421  0.00  0.00     0.008 A 
ENDBRANCH  19  20
ENDBRANCH  18  19
ENDBRANCH   5  18
TORSDOF 10
ENDMDL
MODEL 5
REMARK VINA RESULT:      -6.2      6.924     13.203
REMARK  10 active torsions:
REMARK  status: ('A' for Active; 'I' for Inactive)
REMARK    1  A    between atoms: C_5  and  S_17 
REMARK    2  A    between atoms: C_6  and  C_8 
REMARK    3  A    between atoms: C_8  and  N_9 
REMARK    4  A    between atoms: N_9  and  C_10 
REMARK    5  A    between atoms: C_10  and  C_11 
REMARK    6  A    between atoms: C_11  and  C_12 
REMARK    7  A    between atoms: C_12  and  C_13 
REMARK    8  A    between atoms: C_13  and  N_14 
REMARK    9  A    between atoms: S_17  and  C_24 
REMARK   10  A    between atoms: C_18  and  C_24 
ROOT
HETATM    1  C           1     177.681 185.584 276.007  0.00  0.00     0.018 A 
HETATM    2  C           1     178.013 186.537 275.057  0.00  0.00     0.089 A 
HETATM    3  N           1     177.107 187.175 274.283  0.00  0.00    -0.360 N 
ATOM      4  HN          1     177.388 187.872 273.593  1.00  0.00     0.166 HD
HETATM    5  C           1     175.811 186.842 274.471  0.00  0.00     0.077 A 
HETATM    6  C           1     175.382 185.903 275.394  0.00  0.00     0.003 A 
HETATM    7  C           1     176.338 185.263 276.176  0.00  0.00     0.013 A 
ENDROOT
BRANCH   6   8
HETATM    8  C           1     173.926 185.584 275.547  0.00  0.00     0.307 C 
BRANCH   8   9
HETATM    9  N           1     173.608 185.451 276.943  0.00  0.00     0.087 N 
HETATM   10  H           1     173.334 184.488 277.138  0.00  0.00     0.316 HD
BRANCH   9  11
HETATM   11  C           1     172.507 186.330 277.226  0.00  0.00     0.270 C 
BRANCH  11  12
HETATM   12  C           1     171.818 185.886 278.510  0.00  0.00     0.032 C 
BRANCH  12  13
HETATM   13  C           1     172.860 185.680 279.601  0.00  0.00     0.032 C 
BRANCH  13  14
HETATM   14  C           1     172.638 186.694 280.715  0.00  0.00     0.271 C 
BRANCH  14  15
HETATM   15  N           1     173.528 187.809 280.534  0.00  0.00     0.080 N 
HETATM   16  C           1     173.420 188.648 281.696  0.00  0.00     0.309 C 
HETATM   17  C           1     174.870 187.293 280.489  0.00  0.00     0.309 C 
ENDBRANCH  14  15
ENDBRANCH  13  14
ENDBRANCH  12  13
ENDBRANCH  11  12
ENDBRANCH   9  11
ENDBRANCH   8   9
ENDBRANCH   6   8
BRANCH   5  18
HETATM   18  S           1     174.560 187.674 273.452  0.00  0.00    -0.107 SA
BRANCH  18  19
HETATM   19  C           1     175.319 187.169 271.882  0.00  0.00     0.122 C 
BRANCH  19  20
HETATM   20  C           1     175.071 185.711 271.653  0.00  0.00    -0.049 A 
HETATM   21  C           1     173.793 185.183 271.838  0.00  0.00     0.008 A 
HETATM   22  C           1     173.561 183.825 271.625  0.00  0.00     0.001 A 
HETATM   23  C           1     174.608 182.992 271.227  0.00  0.00     0.000 A 
HETATM   24  C           1     175.887 183.520 271.043  0.00  0.00     0.001 A 
HETATM   25  C           1     176.117 184.879 271.257  0.00  0.00     0.008 A 
ENDBRANCH  19  20
ENDBRANCH  18  19
ENDBRANCH   5  18
TORSDOF 10
ENDMDL
MODEL 6
REMARK VINA RESULT:      -6.0      6.857     14.199
REMARK  10 active torsions:
REMARK  status: ('A' for Active; 'I' for Inactive)
REMARK    1  A    between atoms: C_5  and  S_17 
REMARK    2  A    between atoms: C_6  and  C_8 
REMARK    3  A    between atoms: C_8  and  N_9 
REMARK    4  A    between atoms: N_9  and  C_10 
REMARK    5  A    between atoms: C_10  and  C_11 
REMARK    6  A    between atoms: C_11  and  C_12 
REMARK    7  A    between atoms: C_12  and  C_13 
REMARK    8  A    between atoms: C_13  and  N_14 
REMARK    9  A    between atoms: S_17  and  C_24 
REMARK   10  A    between atoms: C_18  and  C_24 
ROOT
HETATM    1  C           1     177.819 185.805 275.879  0.00  0.00     0.018 A 
HETATM    2  C           1     178.212 186.418 274.700  0.00  0.00     0.089 A 
HETATM    3  N           1     177.373 186.683 273.674  0.00  0.00    -0.360 N 
ATOM      4  HN          1     177.698 187.136 272.820  1.00  0.00     0.166 HD
HETATM    5  C           1     176.083 186.316 273.838  0.00  0.00     0.077 A 
HETATM    6  C           1     175.596 185.699 274.978  0.00  0.00     0.003 A 
HETATM    7  C           1     176.484 185.439 276.017  0.00  0.00     0.013 A 
ENDROOT
BRANCH   6   8
HETATM    8  C           1     174.151 185.319 275.090  0.00  0.00     0.307 C 
BRANCH   8   9
HETATM    9  N           1     173.467 186.272 275.921  0.00  0.00     0.087 N 
HETATM   10  H           1     174.121 186.998 276.214  0.00  0.00     0.316 HD
BRANCH   9  11
HETATM   11  C           1     172.979 185.572 277.078  0.00  0.00     0.270 C 
BRANCH  11  12
HETATM   12  C           1     173.411 186.309 278.338  0.00  0.00     0.032 C 
BRANCH  12  13
HETATM   13  C           1     172.510 185.906 279.499  0.00  0.00     0.032 C 
BRANCH  13  14
HETATM   14  C           1     172.772 186.820 280.687  0.00  0.00     0.271 C 
BRANCH  14  15
HETATM   15  N           1     173.272 186.043 281.790  0.00  0.00     0.080 N 
HETATM   16  C           1     174.686 186.284 281.889  0.00  0.00     0.309 C 
HETATM   17  C           1     172.658 186.543 282.990  0.00  0.00     0.309 C 
ENDBRANCH  14  15
ENDBRANCH  13  14
ENDBRANCH  12  13
ENDBRANCH  11  12
ENDBRANCH   9  11
ENDBRANCH   8   9
ENDBRANCH   6   8
BRANCH   5  18
HETATM   18  S           1     174.921 186.652 272.484  0.00  0.00    -0.107 SA
BRANCH  18  19
HETATM   19  C           1     175.562 188.323 272.180  0.00  0.00     0.122 C 
BRANCH  19  20
HETATM   20  C           1     175.273 188.719 270.767  0.00  0.00    -0.049 A 
HETATM   21  C           1     175.241 190.068 270.412  0.00  0.00     0.008 A 
HETATM   22  C           1     174.971 190.437 269.095  0.00  0.00     0.001 A 
HETATM   23  C           1     174.732 189.458 268.131  0.00  0.00     0.000 A 
HETATM   24  C           1     174.762 188.109 268.485  0.00  0.00     0.001 A 
HETATM   25  C           1     175.032 187.740 269.803  0.00  0.00     0.008 A 
ENDBRANCH  19  20
ENDBRANCH  18  19
ENDBRANCH   5  18
TORSDOF 10
ENDMDL
MODEL 7
REMARK VINA RESULT:      -5.9      3.270     10.293
REMARK  10 active torsions:
REMARK  status: ('A' for Active; 'I' for Inactive)
REMARK    1  A    between atoms: C_5  and  S_17 
REMARK    2  A    between atoms: C_6  and  C_8 
REMARK    3  A    between atoms: C_8  and  N_9 
REMARK    4  A    between atoms: N_9  and  C_10 
REMARK    5  A    between atoms: C_10  and  C_11 
REMARK    6  A    between atoms: C_11  and  C_12 
REMARK    7  A    between atoms: C_12  and  C_13 
REMARK    8  A    between atoms: C_13  and  N_14 
REMARK    9  A    between atoms: S_17  and  C_24 
REMARK   10  A    between atoms: C_18  and  C_24 
ROOT
HETATM    1  C           1     171.425 189.161 280.565  0.00  0.00     0.018 A 
HETATM    2  C           1     170.705 188.896 279.411  0.00  0.00     0.089 A 
HETATM    3  N           1     170.842 187.768 278.681  0.00  0.00    -0.360 N 
ATOM      4  HN          1     170.294 187.606 277.836  1.00  0.00     0.166 HD
HETATM    5  C           1     171.743 186.864 279.129  0.00  0.00     0.077 A 
HETATM    6  C           1     172.508 187.039 280.269  0.00  0.00     0.003 A 
HETATM    7  C           1     172.344 188.212 280.999  0.00  0.00     0.013 A 
ENDROOT
BRANCH   6   8
HETATM    8  C           1     173.488 185.994 280.705  0.00  0.00     0.307 C 
BRANCH   8   9
HETATM    9  N           1     173.103 185.481 281.992  0.00  0.00     0.087 N 
HETATM   10  H           1     172.813 186.253 282.592  0.00  0.00     0.316 HD
BRANCH   9  11
HETATM   11  C           1     174.250 184.832 282.565  0.00  0.00     0.270 C 
BRANCH  11  12
HETATM   12  C           1     174.663 185.560 283.838  0.00  0.00     0.032 C 
BRANCH  12  13
HETATM   13  C           1     174.077 184.844 285.047  0.00  0.00     0.032 C 
BRANCH  13  14
HETATM   14  C           1     174.576 185.510 286.323  0.00  0.00     0.271 C 
BRANCH  14  15
HETATM   15  N           1     173.807 185.037 287.443  0.00  0.00     0.080 N 
HETATM   16  C           1     173.983 185.972 288.520  0.00  0.00     0.309 C 
HETATM   17  C           1     172.420 185.064 287.063  0.00  0.00     0.309 C 
ENDBRANCH  14  15
ENDBRANCH  13  14
ENDBRANCH  12  13
ENDBRANCH  11  12
ENDBRANCH   9  11
ENDBRANCH   8   9
ENDBRANCH   6   8
BRANCH   5  18
HETATM   18  S           1     171.960 185.333 278.178  0.00  0.00    -0.107 SA
BRANCH  18  19
HETATM   19  C           1     172.467 186.196 276.664  0.00  0.00     0.122 C 
BRANCH  19  20
HETATM   20  C           1     173.937 186.013 276.453  0.00  0.00    -0.049 A 
HETATM   21  C           1     174.848 186.646 277.299  0.00  0.00     0.008 A 
HETATM   22  C           1     176.218 186.476 277.102  0.00  0.00     0.001 A 
HETATM   23  C           1     176.679 185.672 276.059  0.00  0.00     0.000 A 
HETATM   24  C           1     175.768 185.040 275.212  0.00  0.00     0.001 A 
HETATM   25  C           1     174.398 185.210 275.409  0.00  0.00     0.008 A 
ENDBRANCH  19  20
ENDBRANCH  18  19
ENDBRANCH   5  18
TORSDOF 10
ENDMDL
MODEL 8
REMARK VINA RESULT:      -5.9      3.166      7.805
REMARK  10 active torsions:
REMARK  status: ('A' for Active; 'I' for Inactive)
REMARK    1  A    between atoms: C_5  and  S_17 
REMARK    2  A    between atoms: C_6  and  C_8 
REMARK    3  A    between atoms: C_8  and  N_9 
REMARK    4  A    between atoms: N_9  and  C_10 
REMARK    5  A    between atoms: C_10  and  C_11 
REMARK    6  A    between atoms: C_11  and  C_12 
REMARK    7  A    between atoms: C_12  and  C_13 
REMARK    8  A    between atoms: C_13  and  N_14 
REMARK    9  A    between atoms: S_17  and  C_24 
REMARK   10  A    between atoms: C_18  and  C_24 
ROOT
HETATM    1  C           1     174.963 184.328 285.731  0.00  0.00     0.018 A 
HETATM    2  C           1     174.212 185.185 284.941  0.00  0.00     0.089 A 
HETATM    3  N           1     173.535 186.251 285.420  0.00  0.00    -0.360 N 
ATOM      4  HN          1     172.993 186.860 284.808  1.00  0.00     0.166 HD
HETATM    5  C           1     173.613 186.468 286.752  0.00  0.00     0.077 A 
HETATM    6  C           1     174.336 185.669 287.622  0.00  0.00     0.003 A 
HETATM    7  C           1     175.023 184.578 287.098  0.00  0.00     0.013 A 
ENDROOT
BRANCH   6   8
HETATM    8  C           1     174.377 185.970 289.088  0.00  0.00     0.307 C 
BRANCH   8   9
HETATM    9  N           1     173.303 185.281 289.750  0.00  0.00     0.087 N 
HETATM   10  H           1     172.626 184.962 289.057  0.00  0.00     0.316 HD
BRANCH   9  11
HETATM   11  C           1     172.671 186.213 290.643  0.00  0.00     0.270 C 
BRANCH  11  12
HETATM   12  C           1     171.842 185.452 291.670  0.00  0.00     0.032 C 
BRANCH  12  13
HETATM   13  C           1     171.796 186.240 292.973  0.00  0.00     0.032 C 
BRANCH  13  14
HETATM   14  C           1     170.530 187.084 293.012  0.00  0.00     0.271 C 
BRANCH  14  15
HETATM   15  N           1     169.593 186.502 293.936  0.00  0.00     0.080 N 
HETATM   16  C           1     169.299 187.489 294.940  0.00  0.00     0.309 C 
HETATM   17  C           1     168.377 186.237 293.215  0.00  0.00     0.309 C 
ENDBRANCH  14  15
ENDBRANCH  13  14
ENDBRANCH  12  13
ENDBRANCH  11  12
ENDBRANCH   9  11
ENDBRANCH   8   9
ENDBRANCH   6   8
BRANCH   5  18
HETATM   18  S           1     172.717 187.889 287.439  0.00  0.00    -0.107 SA
BRANCH  18  19
HETATM   19  C           1     171.124 187.390 286.726  0.00  0.00     0.122 C 
BRANCH  19  20
HETATM   20  C           1     170.311 186.684 287.765  0.00  0.00    -0.049 A 
HETATM   21  C           1     170.318 185.291 287.829  0.00  0.00     0.008 A 
HETATM   22  C           1     169.560 184.632 288.797  0.00  0.00     0.001 A 
HETATM   23  C           1     168.795 185.367 289.702  0.00  0.00     0.000 A 
HETATM   24  C           1     168.787 186.761 289.639  0.00  0.00     0.001 A 
HETATM   25  C           1     169.545 187.419 288.670  0.00  0.00     0.008 A 
ENDBRANCH  19  20
ENDBRANCH  18  19
ENDBRANCH   5  18
TORSDOF 10
ENDMDL
MODEL 9
REMARK VINA RESULT:      -5.8     12.087     15.830
REMARK  10 active torsions:
REMARK  status: ('A' for Active; 'I' for Inactive)
REMARK    1  A    between atoms: C_5  and  S_17 
REMARK    2  A    between atoms: C_6  and  C_8 
REMARK    3  A    between atoms: C_8  and  N_9 
REMARK    4  A    between atoms: N_9  and  C_10 
REMARK    5  A    between atoms: C_10  and  C_11 
REMARK    6  A    between atoms: C_11  and  C_12 
REMARK    7  A    between atoms: C_12  and  C_13 
REMARK    8  A    between atoms: C_13  and  N_14 
REMARK    9  A    between atoms: S_17  and  C_24 
REMARK   10  A    between atoms: C_18  and  C_24 
ROOT
HETATM    1  C           1     174.785 190.445 269.009  0.00  0.00     0.018 A 
HETATM    2  C           1     175.080 190.498 270.362  0.00  0.00     0.089 A 
HETATM    3  N           1     175.210 189.407 271.146  0.00  0.00    -0.360 N 
ATOM      4  HN          1     175.428 189.484 272.140  1.00  0.00     0.166 HD
HETATM    5  C           1     175.038 188.207 270.547  0.00  0.00     0.077 A 
HETATM    6  C           1     174.742 188.053 269.203  0.00  0.00     0.003 A 
HETATM    7  C           1     174.613 189.196 268.422  0.00  0.00     0.013 A 
ENDROOT
BRANCH   6   8
HETATM    8  C           1     174.563 186.691 268.607  0.00  0.00     0.307 C 
BRANCH   8   9
HETATM    9  N           1     175.532 186.493 267.563  0.00  0.00     0.087 N 
HETATM   10  H           1     175.622 187.348 267.016  0.00  0.00     0.316 HD
BRANCH   9  11
HETATM   11  C           1     175.055 185.432 266.719  0.00  0.00     0.270 C 
BRANCH  11  12
HETATM   12  C           1     176.236 184.621 266.204  0.00  0.00     0.032 C 
BRANCH  12  13
HETATM   13  C           1     176.911 183.908 267.368  0.00  0.00     0.032 C 
BRANCH  13  14
HETATM   14  C           1     175.968 182.857 267.937  0.00  0.00     0.271 C 
BRANCH  14  15
HETATM   15  N           1     176.042 182.873 269.374  0.00  0.00     0.080 N 
HETATM   16  C           1     176.971 183.903 269.752  0.00  0.00     0.309 C 
HETATM   17  C           1     174.746 183.248 269.872  0.00  0.00     0.309 C 
ENDBRANCH  14  15
ENDBRANCH  13  14
ENDBRANCH  12  13
ENDBRANCH  11  12
ENDBRANCH   9  11
ENDBRANCH   8   9
ENDBRANCH   6   8
BRANCH   5  18
HETATM   18  S           1     175.203 186.713 271.565  0.00  0.00    -0.107 SA
BRANCH  18  19
HETATM   19  C           1     176.221 187.532 272.826  0.00  0.00     0.122 C 
BRANCH  19  20
HETATM   20  C           1     176.382 186.624 274.004  0.00  0.00    -0.049 A 
HETATM   21  C           1     177.590 186.589 274.699  0.00  0.00     0.008 A 
HETATM   22  C           1     177.740 185.743 275.797  0.00  0.00     0.001 A 
HETATM   23  C           1     176.681 184.930 276.201  0.00  0.00     0.000 A 
HETATM   24  C           1     175.472 184.963 275.506  0.00  0.00     0.001 A 
HETATM   25  C           1     175.323 185.810 274.408  0.00  0.00     0.008 A 
ENDBRANCH  19  20
ENDBRANCH  18  19
ENDBRANCH   5  18
TORSDOF 10
ENDMDL
