MODEL 1
REMARK VINA RESULT:      -8.3      0.000      0.000
REMARK  9 active torsions:
REMARK  status: ('A' for Active; 'I' for Inactive)
REMARK    1  A    between atoms: C_2  and  C_17 
REMARK    2  A    between atoms: C_4  and  S_8 
REMARK    3  A    between atoms: C_5  and  C_7 
REMARK    4  A    between atoms: C_7  and  N_16 
REMARK    5  A    between atoms: S_8  and  C_9 
REMARK    6  A    between atoms: C_9  and  C_10 
REMARK    7  A    between atoms: N_16  and  C_18 
REMARK    8  A    between atoms: C_18  and  C_19 
REMARK    9  A    between atoms: C_19  and  N_20 
ROOT
HETATM    1  C           1     173.472 189.129 283.644  0.00  0.00     0.130 A 
HETATM    2  C           1     172.878 189.552 282.467  0.00  0.00    -0.008 A 
HETATM    3  N           1     174.376 188.128 283.712  0.00  0.00    -0.253 NA
HETATM    4  C           1     174.700 187.524 282.548  0.00  0.00     0.101 A 
HETATM    5  C           1     174.160 187.876 281.321  0.00  0.00     0.006 A 
HETATM    6  C           1     173.231 188.911 281.283  0.00  0.00     0.025 A 
ENDROOT
BRANCH   5   7
HETATM    7  C           1     174.565 187.162 280.069  0.00  0.00     0.311 C 
BRANCH   7   8
HETATM    8  N           1     173.480 186.334 279.616  0.00  0.00     0.089 N 
HETATM    9  H           1     173.634 185.373 279.924  0.00  0.00     0.316 HD
BRANCH   8  10
HETATM   10  C           1     173.466 186.379 278.179  0.00  0.00     0.300 C 
BRANCH  10  11
HETATM   11  C           1     174.824 186.842 277.671  0.00  0.00     0.302 C 
BRANCH  11  12
HETATM   12  N           1     174.836 186.812 276.234  0.00  0.00     0.093 N 
HETATM   13  C           1     176.178 187.244 275.805  0.00  0.00     0.302 C 
HETATM   14  C           1     176.430 187.021 274.299  0.00  0.00     0.302 C 
HETATM   15  N           1     176.207 185.627 273.879  0.00  0.00     0.087 N 
HETATM   16  C           1     176.233 185.613 272.441  0.00  0.00     0.310 C 
HETATM   17  C           1     174.865 185.194 274.307  0.00  0.00     0.302 C 
HETATM   18  C           1     174.613 185.418 275.814  0.00  0.00     0.302 C 
ENDBRANCH  11  12
ENDBRANCH  10  11
ENDBRANCH   8  10
ENDBRANCH   7   8
ENDBRANCH   5   7
BRANCH   4  19
HETATM   19  S           1     175.912 186.173 282.592  0.00  0.00    -0.105 SA
BRANCH  19  20
HETATM   20  C           1     174.650 184.878 282.746  0.00  0.00     0.119 C 
BRANCH  20  21
HETATM   21  C           1     174.081 184.896 284.130  0.00  0.00    -0.049 A 
HETATM   22  C           1     174.916 184.698 285.230  0.00  0.00     0.008 A 
HETATM   23  C           1     174.386 184.716 286.520  0.00  0.00     0.001 A 
HETATM   24  C           1     173.021 184.930 286.711  0.00  0.00     0.000 A 
HETATM   25  C           1     172.186 185.128 285.611  0.00  0.00     0.001 A 
HETATM   26  C           1     172.715 185.110 284.321  0.00  0.00     0.008 A 
ENDBRANCH  20  21
ENDBRANCH  19  20
ENDBRANCH   4  19
BRANCH   2  27
HETATM   27  C           1     171.988 190.551 282.466  0.00  0.00    -0.025 A 
HETATM   28  C           1     172.242 191.708 281.728  0.00  0.00     0.013 A 
HETATM   29  C           1     171.315 192.751 281.728  0.00  0.00     0.007 A 
HETATM   30  C           1     170.136 192.637 282.464  0.00  0.00    -0.062 A 
HETATM   31  C           1     169.141 193.755 282.462  0.00  0.00     0.048 C 
HETATM   32  C           1     169.883 191.479 283.201  0.00  0.00     0.007 A 
HETATM   33  C           1     170.810 190.437 283.202  0.00  0.00     0.013 A 
ENDBRANCH   2  27
TORSDOF 9
ENDMDL
MODEL 2
REMARK VINA RESULT:      -8.3      8.343     13.414
REMARK  9 active torsions:
REMARK  status: ('A' for Active; 'I' for Inactive)
REMARK    1  A    between atoms: C_2  and  C_17 
REMARK    2  A    between atoms: C_4  and  S_8 
REMARK    3  A    between atoms: C_5  and  C_7 
REMARK    4  A    between atoms: C_7  and  N_16 
REMARK    5  A    between atoms: S_8  and  C_9 
REMARK    6  A    between atoms: C_9  and  C_10 
REMARK    7  A    between atoms: N_16  and  C_18 
REMARK    8  A    between atoms: C_18  and  C_19 
REMARK    9  A    between atoms: C_19  and  N_20 
ROOT
HETATM    1  C           1     174.437 186.302 271.941  0.00  0.00     0.130 A 
HETATM    2  C           1     175.553 185.540 272.247  0.00  0.00    -0.008 A 
HETATM    3  N           1     173.796 186.253 270.753  0.00  0.00    -0.253 NA
HETATM    4  C           1     174.295 185.402 269.831  0.00  0.00     0.101 A 
HETATM    5  C           1     175.405 184.600 270.043  0.00  0.00     0.006 A 
HETATM    6  C           1     176.044 184.672 271.276  0.00  0.00     0.025 A 
ENDROOT
BRANCH   5   7
HETATM    7  C           1     175.903 183.678 268.973  0.00  0.00     0.311 C 
BRANCH   7   8
HETATM    8  N           1     177.170 184.152 268.483  0.00  0.00     0.089 N 
HETATM    9  H           1     177.306 185.120 268.773  0.00  0.00     0.316 HD
BRANCH   8  10
HETATM   10  C           1     177.138 184.081 267.048  0.00  0.00     0.300 C 
BRANCH  10  11
HETATM   11  C           1     176.419 182.810 266.617  0.00  0.00     0.302 C 
BRANCH  11  12
HETATM   12  N           1     175.853 182.997 265.308  0.00  0.00     0.093 N 
HETATM   13  C           1     174.393 183.090 265.480  0.00  0.00     0.302 C 
HETATM   14  C           1     173.663 183.547 264.199  0.00  0.00     0.302 C 
HETATM   15  N           1     174.176 184.823 263.668  0.00  0.00     0.087 N 
HETATM   16  C           1     173.593 185.000 262.365  0.00  0.00     0.310 C 
HETATM   17  C           1     175.637 184.730 263.496  0.00  0.00     0.302 C 
HETATM   18  C           1     176.366 184.273 264.778  0.00  0.00     0.302 C 
ENDBRANCH  11  12
ENDBRANCH  10  11
ENDBRANCH   8  10
ENDBRANCH   7   8
ENDBRANCH   5   7
BRANCH   4  19
HETATM   19  S           1     173.465 185.303 268.219  0.00  0.00    -0.105 SA
BRANCH  19  20
HETATM   20  C           1     174.534 186.553 267.450  0.00  0.00     0.119 C 
BRANCH  20  21
HETATM   21  C           1     173.836 187.877 267.455  0.00  0.00    -0.049 A 
HETATM   22  C           1     174.474 189.000 267.984  0.00  0.00     0.008 A 
HETATM   23  C           1     173.824 190.234 267.987  0.00  0.00     0.001 A 
HETATM   24  C           1     172.537 190.346 267.462  0.00  0.00     0.000 A 
HETATM   25  C           1     171.900 189.224 266.932  0.00  0.00     0.001 A 
HETATM   26  C           1     172.549 187.990 266.929  0.00  0.00     0.008 A 
ENDBRANCH  20  21
ENDBRANCH  19  20
ENDBRANCH   4  19
BRANCH   2  27
HETATM   27  C           1     176.143 185.635 273.443  0.00  0.00    -0.025 A 
HETATM   28  C           1     175.538 185.066 274.565  0.00  0.00     0.013 A 
HETATM   29  C           1     176.152 185.164 275.813  0.00  0.00     0.007 A 
HETATM   30  C           1     177.370 185.832 275.941  0.00  0.00    -0.062 A 
HETATM   31  C           1     178.030 185.937 277.280  0.00  0.00     0.048 C 
HETATM   32  C           1     177.975 186.401 274.819  0.00  0.00     0.007 A 
HETATM   33  C           1     177.360 186.302 273.570  0.00  0.00     0.013 A 
ENDBRANCH   2  27
TORSDOF 9
ENDMDL
MODEL 3
REMARK VINA RESULT:      -8.3      8.331     13.568
REMARK  9 active torsions:
REMARK  status: ('A' for Active; 'I' for Inactive)
REMARK    1  A    between atoms: C_2  and  C_17 
REMARK    2  A    between atoms: C_4  and  S_8 
REMARK    3  A    between atoms: C_5  and  C_7 
REMARK    4  A    between atoms: C_7  and  N_16 
REMARK    5  A    between atoms: S_8  and  C_9 
REMARK    6  A    between atoms: C_9  and  C_10 
REMARK    7  A    between atoms: N_16  and  C_18 
REMARK    8  A    between atoms: C_18  and  C_19 
REMARK    9  A    between atoms: C_19  and  N_20 
ROOT
HETATM    1  C           1     174.480 186.308 271.914  0.00  0.00     0.130 A 
HETATM    2  C           1     175.601 185.559 272.232  0.00  0.00    -0.008 A 
HETATM    3  N           1     173.855 186.254 270.718  0.00  0.00    -0.253 NA
HETATM    4  C           1     174.376 185.412 269.800  0.00  0.00     0.101 A 
HETATM    5  C           1     175.493 184.622 270.024  0.00  0.00     0.006 A 
HETATM    6  C           1     176.115 184.700 271.265  0.00  0.00     0.025 A 
ENDROOT
BRANCH   5   7
HETATM    7  C           1     176.016 183.710 268.958  0.00  0.00     0.311 C 
BRANCH   7   8
HETATM    8  N           1     177.215 184.269 268.393  0.00  0.00     0.089 N 
HETATM    9  H           1     177.263 185.263 268.615  0.00  0.00     0.316 HD
BRANCH   8  10
HETATM   10  C           1     177.147 184.099 266.967  0.00  0.00     0.300 C 
BRANCH  10  11
HETATM   11  C           1     176.207 182.948 266.636  0.00  0.00     0.302 C 
BRANCH  11  12
HETATM   12  N           1     176.405 182.544 265.271  0.00  0.00     0.093 N 
HETATM   13  C           1     176.631 183.771 264.487  0.00  0.00     0.302 C 
HETATM   14  C           1     177.112 183.487 263.048  0.00  0.00     0.302 C 
HETATM   15  N           1     178.321 182.645 263.001  0.00  0.00     0.087 N 
HETATM   16  C           1     178.510 182.260 261.628  0.00  0.00     0.310 C 
HETATM   17  C           1     178.094 181.418 263.784  0.00  0.00     0.302 C 
HETATM   18  C           1     177.614 181.702 265.223  0.00  0.00     0.302 C 
ENDBRANCH  11  12
ENDBRANCH  10  11
ENDBRANCH   8  10
ENDBRANCH   7   8
ENDBRANCH   5   7
BRANCH   4  19
HETATM   19  S           1     173.567 185.308 268.178  0.00  0.00    -0.105 SA
BRANCH  19  20
HETATM   20  C           1     174.544 186.660 267.463  0.00  0.00     0.119 C 
BRANCH  20  21
HETATM   21  C           1     173.709 187.902 267.404  0.00  0.00    -0.049 A 
HETATM   22  C           1     172.451 187.870 266.803  0.00  0.00     0.008 A 
HETATM   23  C           1     171.675 189.027 266.749  0.00  0.00     0.001 A 
HETATM   24  C           1     172.155 190.216 267.296  0.00  0.00     0.000 A 
HETATM   25  C           1     173.413 190.248 267.898  0.00  0.00     0.001 A 
HETATM   26  C           1     174.190 189.092 267.952  0.00  0.00     0.008 A 
ENDBRANCH  20  21
ENDBRANCH  19  20
ENDBRANCH   4  19
BRANCH   2  27
HETATM   27  C           1     176.175 185.657 273.436  0.00  0.00    -0.025 A 
HETATM   28  C           1     177.387 186.334 273.576  0.00  0.00     0.013 A 
HETATM   29  C           1     177.986 186.436 274.832  0.00  0.00     0.007 A 
HETATM   30  C           1     177.375 185.861 275.946  0.00  0.00    -0.062 A 
HETATM   31  C           1     178.018 185.971 277.293  0.00  0.00     0.048 C 
HETATM   32  C           1     176.163 185.184 275.805  0.00  0.00     0.007 A 
HETATM   33  C           1     175.564 185.082 274.549  0.00  0.00     0.013 A 
ENDBRANCH   2  27
TORSDOF 9
ENDMDL
MODEL 4
REMARK VINA RESULT:      -8.2      7.877     12.466
REMARK  9 active torsions:
REMARK  status: ('A' for Active; 'I' for Inactive)
REMARK    1  A    between atoms: C_2  and  C_17 
REMARK    2  A    between atoms: C_4  and  S_8 
REMARK    3  A    between atoms: C_5  and  C_7 
REMARK    4  A    between atoms: C_7  and  N_16 
REMARK    5  A    between atoms: S_8  and  C_9 
REMARK    6  A    between atoms: C_9  and  C_10 
REMARK    7  A    between atoms: N_16  and  C_18 
REMARK    8  A    between atoms: C_18  and  C_19 
REMARK    9  A    between atoms: C_19  and  N_20 
ROOT
HETATM    1  C           1     175.967 184.768 271.378  0.00  0.00     0.130 A 
HETATM    2  C           1     175.489 185.570 272.402  0.00  0.00    -0.008 A 
HETATM    3  N           1     175.367 184.649 270.174  0.00  0.00    -0.253 NA
HETATM    4  C           1     174.238 185.367 269.987  0.00  0.00     0.101 A 
HETATM    5  C           1     173.683 186.196 270.949  0.00  0.00     0.006 A 
HETATM    6  C           1     174.324 186.297 272.179  0.00  0.00     0.025 A 
ENDROOT
BRANCH   5   7
HETATM    7  C           1     172.428 186.963 270.671  0.00  0.00     0.311 C 
BRANCH   7   8
HETATM    8  N           1     172.677 188.369 270.840  0.00  0.00     0.089 N 
HETATM    9  H           1     173.283 188.512 271.648  0.00  0.00     0.316 HD
BRANCH   8  10
HETATM   10  C           1     171.412 189.013 271.070  0.00  0.00     0.300 C 
BRANCH  10  11
HETATM   11  C           1     171.561 190.515 270.868  0.00  0.00     0.302 C 
BRANCH  11  12
HETATM   12  N           1     172.681 190.993 271.633  0.00  0.00     0.093 N 
HETATM   13  C           1     173.271 192.113 270.878  0.00  0.00     0.302 C 
HETATM   14  C           1     174.325 192.897 271.689  0.00  0.00     0.302 C 
HETATM   15  N           1     173.808 193.393 272.977  0.00  0.00     0.087 N 
HETATM   16  C           1     174.938 193.877 273.723  0.00  0.00     0.310 C 
HETATM   17  C           1     173.218 192.274 273.732  0.00  0.00     0.302 C 
HETATM   18  C           1     172.164 191.489 272.921  0.00  0.00     0.302 C 
ENDBRANCH  11  12
ENDBRANCH  10  11
ENDBRANCH   8  10
ENDBRANCH   7   8
ENDBRANCH   5   7
BRANCH   4  19
HETATM   19  S           1     173.398 185.239 268.382  0.00  0.00    -0.105 SA
BRANCH  19  20
HETATM   20  C           1     174.570 186.338 267.539  0.00  0.00     0.119 C 
BRANCH  20  21
HETATM   21  C           1     174.033 187.736 267.540  0.00  0.00    -0.049 A 
HETATM   22  C           1     174.828 188.789 267.990  0.00  0.00     0.008 A 
HETATM   23  C           1     174.327 190.091 267.990  0.00  0.00     0.001 A 
HETATM   24  C           1     173.031 190.340 267.540  0.00  0.00     0.000 A 
HETATM   25  C           1     172.235 189.286 267.090  0.00  0.00     0.001 A 
HETATM   26  C           1     172.735 187.984 267.090  0.00  0.00     0.008 A 
ENDBRANCH  20  21
ENDBRANCH  19  20
ENDBRANCH   4  19
BRANCH   2  27
HETATM   27  C           1     176.130 185.644 273.573  0.00  0.00    -0.025 A 
HETATM   28  C           1     177.357 186.305 273.655  0.00  0.00     0.013 A 
HETATM   29  C           1     178.026 186.382 274.876  0.00  0.00     0.007 A 
HETATM   30  C           1     177.471 185.799 276.015  0.00  0.00    -0.062 A 
HETATM   31  C           1     178.189 185.883 277.325  0.00  0.00     0.048 C 
HETATM   32  C           1     176.244 185.139 275.932  0.00  0.00     0.007 A 
HETATM   33  C           1     175.575 185.061 274.711  0.00  0.00     0.013 A 
ENDBRANCH   2  27
TORSDOF 9
ENDMDL
MODEL 5
REMARK VINA RESULT:      -8.1      2.574      8.092
REMARK  9 active torsions:
REMARK  status: ('A' for Active; 'I' for Inactive)
REMARK    1  A    between atoms: C_2  and  C_17 
REMARK    2  A    between atoms: C_4  and  S_8 
REMARK    3  A    between atoms: C_5  and  C_7 
REMARK    4  A    between atoms: C_7  and  N_16 
REMARK    5  A    between atoms: S_8  and  C_9 
REMARK    6  A    between atoms: C_9  and  C_10 
REMARK    7  A    between atoms: N_16  and  C_18 
REMARK    8  A    between atoms: C_18  and  C_19 
REMARK    9  A    between atoms: C_19  and  N_20 
ROOT
HETATM    1  C           1     174.623 186.704 280.181  0.00  0.00     0.130 A 
HETATM    2  C           1     173.544 186.151 280.850  0.00  0.00    -0.008 A 
HETATM    3  N           1     174.618 187.003 278.863  0.00  0.00    -0.253 NA
HETATM    4  C           1     173.480 186.736 278.186  0.00  0.00     0.101 A 
HETATM    5  C           1     172.350 186.184 278.767  0.00  0.00     0.006 A 
HETATM    6  C           1     172.386 185.887 280.125  0.00  0.00     0.025 A 
ENDROOT
BRANCH   5   7
HETATM    7  C           1     171.121 185.914 277.954  0.00  0.00     0.311 C 
BRANCH   7   8
HETATM    8  N           1     170.004 186.615 278.527  0.00  0.00     0.089 N 
HETATM    9  H           1     169.136 186.165 278.237  0.00  0.00     0.316 HD
BRANCH   8  10
HETATM   10  C           1     170.033 187.964 278.030  0.00  0.00     0.300 C 
BRANCH  10  11
HETATM   11  C           1     169.176 188.853 278.920  0.00  0.00     0.302 C 
BRANCH  11  12
HETATM   12  N           1     169.957 189.969 279.380  0.00  0.00     0.093 N 
HETATM   13  C           1     169.046 190.853 280.128  0.00  0.00     0.302 C 
HETATM   14  C           1     169.786 191.966 280.901  0.00  0.00     0.302 C 
HETATM   15  N           1     170.819 191.443 281.813  0.00  0.00     0.087 N 
HETATM   16  C           1     171.583 192.572 282.272  0.00  0.00     0.310 C 
HETATM   17  C           1     171.730 190.559 281.065  0.00  0.00     0.302 C 
HETATM   18  C           1     170.991 189.446 280.292  0.00  0.00     0.302 C 
ENDBRANCH  11  12
ENDBRANCH  10  11
ENDBRANCH   8  10
ENDBRANCH   7   8
ENDBRANCH   5   7
BRANCH   4  19
HETATM   19  S           1     173.428 187.122 276.413  0.00  0.00    -0.105 SA
BRANCH  19  20
HETATM   20  C           1     174.191 185.551 275.920  0.00  0.00     0.119 C 
BRANCH  20  21
HETATM   21  C           1     175.608 185.793 275.501  0.00  0.00    -0.049 A 
HETATM   22  C           1     175.890 186.202 274.198  0.00  0.00     0.008 A 
HETATM   23  C           1     177.210 186.428 273.809  0.00  0.00     0.001 A 
HETATM   24  C           1     178.248 186.245 274.722  0.00  0.00     0.000 A 
HETATM   25  C           1     177.966 185.836 276.026  0.00  0.00     0.001 A 
HETATM   26  C           1     176.646 185.609 276.415  0.00  0.00     0.008 A 
ENDBRANCH  20  21
ENDBRANCH  19  20
ENDBRANCH   4  19
BRANCH   2  27
HETATM   27  C           1     173.613 185.877 282.157  0.00  0.00    -0.025 A 
HETATM   28  C           1     174.661 185.101 282.652  0.00  0.00     0.013 A 
HETATM   29  C           1     174.732 184.814 284.016  0.00  0.00     0.007 A 
HETATM   30  C           1     173.756 185.304 284.883  0.00  0.00    -0.062 A 
HETATM   31  C           1     173.833 184.998 286.346  0.00  0.00     0.048 C 
HETATM   32  C           1     172.708 186.081 284.387  0.00  0.00     0.007 A 
HETATM   33  C           1     172.637 186.367 283.024  0.00  0.00     0.013 A 
ENDBRANCH   2  27
TORSDOF 9
ENDMDL
MODEL 6
REMARK VINA RESULT:      -8.0      2.429      7.657
REMARK  9 active torsions:
REMARK  status: ('A' for Active; 'I' for Inactive)
REMARK    1  A    between atoms: C_2  and  C_17 
REMARK    2  A    between atoms: C_4  and  S_8 
REMARK    3  A    between atoms: C_5  and  C_7 
REMARK    4  A    between atoms: C_7  and  N_16 
REMARK    5  A    between atoms: S_8  and  C_9 
REMARK    6  A    between atoms: C_9  and  C_10 
REMARK    7  A    between atoms: N_16  and  C_18 
REMARK    8  A    between atoms: C_18  and  C_19 
REMARK    9  A    between atoms: C_19  and  N_20 
ROOT
HETATM    1  C           1     170.871 189.060 279.854  0.00  0.00     0.130 A 
HETATM    2  C           1     171.527 189.282 281.053  0.00  0.00    -0.008 A 
HETATM    3  N           1     171.102 187.995 279.056  0.00  0.00    -0.253 NA
HETATM    4  C           1     172.031 187.111 279.481  0.00  0.00     0.101 A 
HETATM    5  C           1     172.739 187.246 280.664  0.00  0.00     0.006 A 
HETATM    6  C           1     172.479 188.354 281.464  0.00  0.00     0.025 A 
ENDROOT
BRANCH   5   7
HETATM    7  C           1     173.756 186.226 281.072  0.00  0.00     0.311 C 
BRANCH   7   8
HETATM    8  N           1     173.157 185.288 281.983  0.00  0.00     0.089 N 
HETATM    9  H           1     172.595 185.792 282.669  0.00  0.00     0.316 HD
BRANCH   8  10
HETATM   10  C           1     174.220 184.591 282.655  0.00  0.00     0.300 C 
BRANCH  10  11
HETATM   11  C           1     174.807 185.483 283.740  0.00  0.00     0.302 C 
BRANCH  11  12
HETATM   12  N           1     173.893 185.558 284.848  0.00  0.00     0.093 N 
HETATM   13  C           1     174.631 185.118 286.045  0.00  0.00     0.302 C 
HETATM   14  C           1     173.864 185.384 287.358  0.00  0.00     0.302 C 
HETATM   15  N           1     173.468 186.794 287.517  0.00  0.00     0.087 N 
HETATM   16  C           1     172.564 186.852 288.634  0.00  0.00     0.310 C 
HETATM   17  C           1     172.730 187.235 286.320  0.00  0.00     0.302 C 
HETATM   18  C           1     173.498 186.969 285.007  0.00  0.00     0.302 C 
ENDBRANCH  11  12
ENDBRANCH  10  11
ENDBRANCH   8  10
ENDBRANCH   7   8
ENDBRANCH   5   7
BRANCH   4  19
HETATM   19  S           1     172.374 185.663 278.440  0.00  0.00    -0.105 SA
BRANCH  19  20
HETATM   20  C           1     172.937 186.654 277.028  0.00  0.00     0.119 C 
BRANCH  20  21
HETATM   21  C           1     174.319 186.230 276.640  0.00  0.00    -0.049 A 
HETATM   22  C           1     174.503 185.288 275.628  0.00  0.00     0.008 A 
HETATM   23  C           1     175.791 184.895 275.267  0.00  0.00     0.001 A 
HETATM   24  C           1     176.896 185.443 275.918  0.00  0.00     0.000 A 
HETATM   25  C           1     176.713 186.385 276.930  0.00  0.00     0.001 A 
HETATM   26  C           1     175.425 186.779 277.291  0.00  0.00     0.008 A 
ENDBRANCH  20  21
ENDBRANCH  19  20
ENDBRANCH   4  19
BRANCH   2  27
HETATM   27  C           1     171.253 190.358 281.798  0.00  0.00    -0.025 A 
HETATM   28  C           1     171.932 191.555 281.569  0.00  0.00     0.013 A 
HETATM   29  C           1     171.647 192.678 282.347  0.00  0.00     0.007 A 
HETATM   30  C           1     170.684 192.604 283.353  0.00  0.00    -0.062 A 
HETATM   31  C           1     170.378 193.808 284.186  0.00  0.00     0.048 C 
HETATM   32  C           1     170.005 191.406 283.582  0.00  0.00     0.007 A 
HETATM   33  C           1     170.290 190.283 282.804  0.00  0.00     0.013 A 
ENDBRANCH   2  27
TORSDOF 9
ENDMDL
MODEL 7
REMARK VINA RESULT:      -8.0      6.390     12.191
REMARK  9 active torsions:
REMARK  status: ('A' for Active; 'I' for Inactive)
REMARK    1  A    between atoms: C_2  and  C_17 
REMARK    2  A    between atoms: C_4  and  S_8 
REMARK    3  A    between atoms: C_5  and  C_7 
REMARK    4  A    between atoms: C_7  and  N_16 
REMARK    5  A    between atoms: S_8  and  C_9 
REMARK    6  A    between atoms: C_9  and  C_10 
REMARK    7  A    between atoms: N_16  and  C_18 
REMARK    8  A    between atoms: C_18  and  C_19 
REMARK    9  A    between atoms: C_19  and  N_20 
ROOT
HETATM    1  C           1     176.109 184.826 271.276  0.00  0.00     0.130 A 
HETATM    2  C           1     175.536 185.539 272.316  0.00  0.00    -0.008 A 
HETATM    3  N           1     175.547 184.696 270.054  0.00  0.00    -0.253 NA
HETATM    4  C           1     174.359 185.310 269.867  0.00  0.00     0.101 A 
HETATM    5  C           1     173.707 186.045 270.844  0.00  0.00     0.006 A 
HETATM    6  C           1     174.311 186.160 272.092  0.00  0.00     0.025 A 
ENDROOT
BRANCH   5   7
HETATM    7  C           1     172.390 186.698 270.565  0.00  0.00     0.311 C 
BRANCH   7   8
HETATM    8  N           1     172.374 188.014 271.146  0.00  0.00     0.089 N 
HETATM    9  H           1     173.206 188.141 271.723  0.00  0.00     0.316 HD
BRANCH   8  10
HETATM   10  C           1     171.200 188.115 271.969  0.00  0.00     0.300 C 
BRANCH  10  11
HETATM   11  C           1     171.591 188.608 273.356  0.00  0.00     0.302 C 
BRANCH  11  12
HETATM   12  N           1     171.530 187.516 274.289  0.00  0.00     0.093 N 
HETATM   13  C           1     172.761 187.572 275.098  0.00  0.00     0.302 C 
HETATM   14  C           1     172.727 186.621 276.313  0.00  0.00     0.302 C 
HETATM   15  N           1     171.559 186.841 277.184  0.00  0.00     0.087 N 
HETATM   16  C           1     171.519 185.747 278.117  0.00  0.00     0.310 C 
HETATM   17  C           1     170.328 186.785 276.375  0.00  0.00     0.302 C 
HETATM   18  C           1     170.362 187.736 275.160  0.00  0.00     0.302 C 
ENDBRANCH  11  12
ENDBRANCH  10  11
ENDBRANCH   8  10
ENDBRANCH   7   8
ENDBRANCH   5   7
BRANCH   4  19
HETATM   19  S           1     173.567 185.163 268.239  0.00  0.00    -0.105 SA
BRANCH  19  20
HETATM   20  C           1     174.668 186.374 267.454  0.00  0.00     0.119 C 
BRANCH  20  21
HETATM   21  C           1     174.029 187.727 267.492  0.00  0.00    -0.049 A 
HETATM   22  C           1     172.742 187.905 266.984  0.00  0.00     0.008 A 
HETATM   23  C           1     172.147 189.166 267.020  0.00  0.00     0.001 A 
HETATM   24  C           1     172.838 190.249 267.562  0.00  0.00     0.000 A 
HETATM   25  C           1     174.125 190.071 268.070  0.00  0.00     0.001 A 
HETATM   26  C           1     174.720 188.811 268.035  0.00  0.00     0.008 A 
ENDBRANCH  20  21
ENDBRANCH  19  20
ENDBRANCH   4  19
BRANCH   2  27
HETATM   27  C           1     176.144 185.629 273.504  0.00  0.00    -0.025 A 
HETATM   28  C           1     177.351 186.320 273.617  0.00  0.00     0.013 A 
HETATM   29  C           1     177.986 186.414 274.856  0.00  0.00     0.007 A 
HETATM   30  C           1     177.414 185.818 275.980  0.00  0.00    -0.062 A 
HETATM   31  C           1     178.095 185.920 277.309  0.00  0.00     0.048 C 
HETATM   32  C           1     176.207 185.128 275.866  0.00  0.00     0.007 A 
HETATM   33  C           1     175.572 185.034 274.627  0.00  0.00     0.013 A 
ENDBRANCH   2  27
TORSDOF 9
ENDMDL
MODEL 8
REMARK VINA RESULT:      -7.9      7.939     14.032
REMARK  9 active torsions:
REMARK  status: ('A' for Active; 'I' for Inactive)
REMARK    1  A    between atoms: C_2  and  C_17 
REMARK    2  A    between atoms: C_4  and  S_8 
REMARK    3  A    between atoms: C_5  and  C_7 
REMARK    4  A    between atoms: C_7  and  N_16 
REMARK    5  A    between atoms: S_8  and  C_9 
REMARK    6  A    between atoms: C_9  and  C_10 
REMARK    7  A    between atoms: N_16  and  C_18 
REMARK    8  A    between atoms: C_18  and  C_19 
REMARK    9  A    between atoms: C_19  and  N_20 
ROOT
HETATM    1  C           1     176.029 183.283 268.224  0.00  0.00     0.130 A 
HETATM    2  C           1     176.092 184.178 267.169  0.00  0.00    -0.008 A 
HETATM    3  N           1     175.610 183.612 269.466  0.00  0.00    -0.253 NA
HETATM    4  C           1     175.237 184.896 269.658  0.00  0.00     0.101 A 
HETATM    5  C           1     175.264 185.863 268.666  0.00  0.00     0.006 A 
HETATM    6  C           1     175.701 185.494 267.398  0.00  0.00     0.025 A 
ENDROOT
BRANCH   5   7
HETATM    7  C           1     174.836 187.269 268.951  0.00  0.00     0.311 C 
BRANCH   7   8
HETATM    8  N           1     174.982 188.066 267.763  0.00  0.00     0.089 N 
HETATM    9  H           1     175.843 187.804 267.282  0.00  0.00     0.316 HD
BRANCH   8  10
HETATM   10  C           1     175.061 189.444 268.168  0.00  0.00     0.300 C 
BRANCH  10  11
HETATM   11  C           1     175.233 189.521 269.678  0.00  0.00     0.302 C 
BRANCH  11  12
HETATM   12  N           1     174.496 190.646 270.189  0.00  0.00     0.093 N 
HETATM   13  C           1     173.729 190.166 271.351  0.00  0.00     0.302 C 
HETATM   14  C           1     173.085 191.311 272.163  0.00  0.00     0.302 C 
HETATM   15  N           1     174.062 192.322 272.605  0.00  0.00     0.087 N 
HETATM   16  C           1     173.310 193.434 273.121  0.00  0.00     0.310 C 
HETATM   17  C           1     174.830 192.802 271.442  0.00  0.00     0.302 C 
HETATM   18  C           1     175.473 191.658 270.630  0.00  0.00     0.302 C 
ENDBRANCH  11  12
ENDBRANCH  10  11
ENDBRANCH   8  10
ENDBRANCH   7   8
ENDBRANCH   5   7
BRANCH   4  19
HETATM   19  S           1     174.666 185.383 271.311  0.00  0.00    -0.105 SA
BRANCH  19  20
HETATM   20  C           1     176.342 185.691 271.937  0.00  0.00     0.119 C 
BRANCH  20  21
HETATM   21  C           1     176.334 185.639 273.433  0.00  0.00    -0.049 A 
HETATM   22  C           1     175.275 185.027 274.104  0.00  0.00     0.008 A 
HETATM   23  C           1     175.269 184.978 275.498  0.00  0.00     0.001 A 
HETATM   24  C           1     176.320 185.542 276.221  0.00  0.00     0.000 A 
HETATM   25  C           1     177.378 186.154 275.550  0.00  0.00     0.001 A 
HETATM   26  C           1     177.385 186.203 274.156  0.00  0.00     0.008 A 
ENDBRANCH  20  21
ENDBRANCH  19  20
ENDBRANCH   4  19
BRANCH   2  27
HETATM   27  C           1     176.516 183.789 265.962  0.00  0.00    -0.025 A 
HETATM   28  C           1     177.327 182.661 265.840  0.00  0.00     0.013 A 
HETATM   29  C           1     177.771 182.255 264.581  0.00  0.00     0.007 A 
HETATM   30  C           1     177.405 182.978 263.445  0.00  0.00    -0.062 A 
HETATM   31  C           1     177.880 182.542 262.095  0.00  0.00     0.048 C 
HETATM   32  C           1     176.594 184.106 263.569  0.00  0.00     0.007 A 
HETATM   33  C           1     176.150 184.512 264.828  0.00  0.00     0.013 A 
ENDBRANCH   2  27
TORSDOF 9
ENDMDL
MODEL 9
REMARK VINA RESULT:      -7.7      8.331     12.762
REMARK  9 active torsions:
REMARK  status: ('A' for Active; 'I' for Inactive)
REMARK    1  A    between atoms: C_2  and  C_17 
REMARK    2  A    between atoms: C_4  and  S_8 
REMARK    3  A    between atoms: C_5  and  C_7 
REMARK    4  A    between atoms: C_7  and  N_16 
REMARK    5  A    between atoms: S_8  and  C_9 
REMARK    6  A    between atoms: C_9  and  C_10 
REMARK    7  A    between atoms: N_16  and  C_18 
REMARK    8  A    between atoms: C_18  and  C_19 
REMARK    9  A    between atoms: C_19  and  N_20 
ROOT
HETATM    1  C           1     173.771 185.931 273.032  0.00  0.00     0.130 A 
HETATM    2  C           1     175.120 185.657 272.885  0.00  0.00    -0.008 A 
HETATM    3  N           1     172.895 185.968 272.004  0.00  0.00    -0.253 NA
HETATM    4  C           1     173.394 185.718 270.774  0.00  0.00     0.101 A 
HETATM    5  C           1     174.728 185.434 270.526  0.00  0.00     0.006 A 
HETATM    6  C           1     175.605 185.403 271.605  0.00  0.00     0.025 A 
ENDROOT
BRANCH   5   7
HETATM    7  C           1     175.212 185.166 269.135  0.00  0.00     0.311 C 
BRANCH   7   8
HETATM    8  N           1     176.493 184.515 269.189  0.00  0.00     0.089 N 
HETATM    9  H           1     177.143 185.088 269.727  0.00  0.00     0.316 HD
BRANCH   8  10
HETATM   10  C           1     176.973 184.382 267.841  0.00  0.00     0.300 C 
BRANCH  10  11
HETATM   11  C           1     175.958 184.982 266.878  0.00  0.00     0.302 C 
BRANCH  11  12
HETATM   12  N           1     176.308 184.628 265.529  0.00  0.00     0.093 N 
HETATM   13  C           1     177.167 183.432 265.607  0.00  0.00     0.302 C 
HETATM   14  C           1     177.417 182.780 264.230  0.00  0.00     0.302 C 
HETATM   15  N           1     176.171 182.443 263.518  0.00  0.00     0.087 N 
HETATM   16  C           1     176.540 182.081 262.176  0.00  0.00     0.310 C 
HETATM   17  C           1     175.312 183.638 263.441  0.00  0.00     0.302 C 
HETATM   18  C           1     175.062 184.291 264.817  0.00  0.00     0.302 C 
ENDBRANCH  11  12
ENDBRANCH  10  11
ENDBRANCH   8  10
ENDBRANCH   7   8
ENDBRANCH   5   7
BRANCH   4  19
HETATM   19  S           1     172.253 185.757 269.363  0.00  0.00    -0.105 SA
BRANCH  19  20
HETATM   20  C           1     171.745 187.474 269.659  0.00  0.00     0.119 C 
BRANCH  20  21
HETATM   21  C           1     172.846 188.399 269.243  0.00  0.00    -0.049 A 
HETATM   22  C           1     173.274 189.408 270.106  0.00  0.00     0.008 A 
HETATM   23  C           1     174.300 190.269 269.718  0.00  0.00     0.001 A 
HETATM   24  C           1     174.899 190.122 268.467  0.00  0.00     0.000 A 
HETATM   25  C           1     174.471 189.113 267.604  0.00  0.00     0.001 A 
HETATM   26  C           1     173.445 188.252 267.991  0.00  0.00     0.008 A 
ENDBRANCH  20  21
ENDBRANCH  19  20
ENDBRANCH   4  19
BRANCH   2  27
HETATM   27  C           1     175.937 185.635 273.944  0.00  0.00    -0.025 A 
HETATM   28  C           1     175.556 184.956 275.102  0.00  0.00     0.013 A 
HETATM   29  C           1     176.407 184.933 276.207  0.00  0.00     0.007 A 
HETATM   30  C           1     177.637 185.590 276.155  0.00  0.00    -0.062 A 
HETATM   31  C           1     178.549 185.565 277.341  0.00  0.00     0.048 C 
HETATM   32  C           1     178.016 186.269 274.997  0.00  0.00     0.007 A 
HETATM   33  C           1     177.165 186.291 273.892  0.00  0.00     0.013 A 
ENDBRANCH   2  27
TORSDOF 9
ENDMDL
