MODEL 1
REMARK VINA RESULT:      -6.9      0.000      0.000
REMARK  11 active torsions:
REMARK  status: ('A' for Active; 'I' for Inactive)
REMARK    1  A    between atoms: N2_7  and  C6_8 
REMARK    2  A    between atoms: C6_8  and  C7_9 
REMARK    3  A    between atoms: C7_9  and  N3_10 
REMARK    4  A    between atoms: N3_10  and  C8_11 
REMARK    5  A    between atoms: C8_11  and  C9_12 
REMARK    6  A    between atoms: C13_16  and  O1_17 
REMARK    7  A    between atoms: C15_19  and  O2_20 
REMARK    8  A    between atoms: C17_22  and  O3_23 
REMARK    9  A    between atoms: C20_27  and  S1_28 
REMARK   10  A    between atoms: S1_28  and  C21_29 
REMARK   11  A    between atoms: C21_29  and  C22_30 
ROOT
HETATM    1  C9  UNL     1     174.414 187.653 269.168  1.00  0.00     0.006 A 
HETATM    2  C10 UNL     1     174.693 187.229 267.861  1.00  0.00     0.025 A 
HETATM    3  C11 UNL     1     174.980 185.882 267.601  1.00  0.00    -0.001 A 
HETATM    4  C12 UNL     1     175.214 185.432 266.302  1.00  0.00     0.053 A 
HETATM    5  C13 UNL     1     175.394 184.062 266.037  1.00  0.00     0.105 A 
HETATM    6  C15 UNL     1     175.349 183.129 267.106  1.00  0.00     0.137 A 
HETATM    7  C17 UNL     1     175.195 183.600 268.435  1.00  0.00     0.134 A 
HETATM    8  C19 UNL     1     174.987 184.967 268.667  1.00  0.00     0.104 A 
HETATM    9  N4  UNL     1     174.765 185.409 269.934  1.00  0.00    -0.238 NA
HETATM   10  C20 UNL     1     174.482 186.708 270.215  1.00  0.00     0.102 A 
ENDROOT
BRANCH   1  11
HETATM   11  C8  UNL     1     173.990 189.082 269.422  1.00  0.00     0.311 C 
BRANCH  11  12
HETATM   12  N3  UNL     1     175.151 189.973 269.282  1.00  0.00     0.089 N 
HETATM   13  H16 UNL     1     174.864 190.792 268.693  1.00  0.00     0.316 HD
BRANCH  12  14
HETATM   14  C7  UNL     1     175.631 190.486 270.578  1.00  0.00     0.300 C 
BRANCH  14  15
HETATM   15  C6  UNL     1     175.208 191.956 270.753  1.00  0.00     0.302 C 
BRANCH  15  16
HETATM   16  N2  UNL     1     174.540 192.157 272.059  1.00  0.00     0.093 N 
HETATM   17  C3  UNL     1     173.649 193.338 272.022  1.00  0.00     0.302 C 
HETATM   18  C2  UNL     1     172.648 193.362 273.201  1.00  0.00     0.302 C 
HETATM   19  N1  UNL     1     173.071 192.505 274.325  1.00  0.00     0.087 N 
HETATM   20  C1  UNL     1     174.221 193.078 275.049  1.00  0.00     0.310 C 
HETATM   21  C4  UNL     1     173.303 191.098 273.913  1.00  0.00     0.302 C 
HETATM   22  C5  UNL     1     173.778 190.960 272.452  1.00  0.00     0.302 C 
ENDBRANCH  15  16
ENDBRANCH  14  15
ENDBRANCH  12  14
ENDBRANCH  11  12
ENDBRANCH   1  11
BRANCH  10  23
HETATM   23  S1  UNL     1     174.203 187.166 271.932  1.00  0.00    -0.105 SA
BRANCH  23  24
HETATM   24  C21 UNL     1     174.722 185.546 272.627  1.00  0.00     0.119 C 
BRANCH  24  25
HETATM   25  C22 UNL     1     175.727 185.623 273.755  1.00  0.00    -0.049 A 
HETATM   26  C23 UNL     1     175.389 185.018 274.976  1.00  0.00     0.008 A 
HETATM   27  C24 UNL     1     176.266 185.066 276.062  1.00  0.00     0.001 A 
HETATM   28  C25 UNL     1     177.497 185.710 275.940  1.00  0.00     0.000 A 
HETATM   29  C26 UNL     1     177.851 186.311 274.732  1.00  0.00     0.001 A 
HETATM   30  C27 UNL     1     176.972 186.274 273.646  1.00  0.00     0.008 A 
ENDBRANCH  24  25
ENDBRANCH  23  24
ENDBRANCH  10  23
BRANCH   5  31
HETATM   31  O1  UNL     1     175.575 183.625 264.720  1.00  0.00    -0.353 OA
HETATM   32  C14 UNL     1     176.841 183.544 264.066  1.00  0.00     0.210 C 
ENDBRANCH   5  31
BRANCH   7  33
HETATM   33  O3  UNL     1     175.223 182.760 269.566  1.00  0.00    -0.351 OA
HETATM   34  C18 UNL     1     176.387 182.301 270.239  1.00  0.00     0.210 C 
ENDBRANCH   7  33
BRANCH   6  35
HETATM   35  O2  UNL     1     175.428 181.738 266.903  1.00  0.00    -0.351 OA
HETATM   36  C16 UNL     1     174.357 180.843 266.638  1.00  0.00     0.210 C 
ENDBRANCH   6  35
TORSDOF 11
ENDMDL
MODEL 2
REMARK VINA RESULT:      -6.8      8.655     13.220
REMARK  11 active torsions:
REMARK  status: ('A' for Active; 'I' for Inactive)
REMARK    1  A    between atoms: N2_7  and  C6_8 
REMARK    2  A    between atoms: C6_8  and  C7_9 
REMARK    3  A    between atoms: C7_9  and  N3_10 
REMARK    4  A    between atoms: N3_10  and  C8_11 
REMARK    5  A    between atoms: C8_11  and  C9_12 
REMARK    6  A    between atoms: C13_16  and  O1_17 
REMARK    7  A    between atoms: C15_19  and  O2_20 
REMARK    8  A    between atoms: C17_22  and  O3_23 
REMARK    9  A    between atoms: C20_27  and  S1_28 
REMARK   10  A    between atoms: S1_28  and  C21_29 
REMARK   11  A    between atoms: C21_29  and  C22_30 
ROOT
HETATM    1  C9  UNL     1     172.731 186.916 280.423  1.00  0.00     0.006 A 
HETATM    2  C10 UNL     1     172.677 188.122 281.136  1.00  0.00     0.025 A 
HETATM    3  C11 UNL     1     171.797 189.139 280.739  1.00  0.00    -0.001 A 
HETATM    4  C12 UNL     1     171.693 190.327 281.462  1.00  0.00     0.053 A 
HETATM    5  C13 UNL     1     170.732 191.295 281.121  1.00  0.00     0.105 A 
HETATM    6  C15 UNL     1     169.865 191.066 280.020  1.00  0.00     0.137 A 
HETATM    7  C17 UNL     1     170.031 189.896 279.236  1.00  0.00     0.134 A 
HETATM    8  C19 UNL     1     170.976 188.933 279.618  1.00  0.00     0.104 A 
HETATM    9  N4  UNL     1     171.083 187.776 278.910  1.00  0.00    -0.238 NA
HETATM   10  C20 UNL     1     171.924 186.773 279.272  1.00  0.00     0.102 A 
ENDROOT
BRANCH   1  11
HETATM   11  C8  UNL     1     173.595 185.782 280.926  1.00  0.00     0.311 C 
BRANCH  11  12
HETATM   12  N3  UNL     1     173.016 185.229 282.159  1.00  0.00     0.089 N 
HETATM   13  H16 UNL     1     172.561 184.314 281.923  1.00  0.00     0.316 HD
BRANCH  12  14
HETATM   14  C7  UNL     1     174.030 184.983 283.200  1.00  0.00     0.300 C 
BRANCH  14  15
HETATM   15  C6  UNL     1     174.349 186.293 283.944  1.00  0.00     0.302 C 
BRANCH  15  16
HETATM   16  N2  UNL     1     173.971 186.189 285.373  1.00  0.00     0.093 N 
HETATM   17  C3  UNL     1     172.649 185.543 285.526  1.00  0.00     0.302 C 
HETATM   18  C2  UNL     1     172.390 185.059 286.972  1.00  0.00     0.302 C 
HETATM   19  N1  UNL     1     173.262 185.724 287.960  1.00  0.00     0.087 N 
HETATM   20  C1  UNL     1     172.880 187.133 288.167  1.00  0.00     0.310 C 
HETATM   21  C4  UNL     1     174.704 185.565 287.646  1.00  0.00     0.302 C 
HETATM   22  C5  UNL     1     174.990 185.446 286.135  1.00  0.00     0.302 C 
ENDBRANCH  15  16
ENDBRANCH  14  15
ENDBRANCH  12  14
ENDBRANCH  11  12
ENDBRANCH   1  11
BRANCH  10  23
HETATM   23  S1  UNL     1     171.969 185.290 278.255  1.00  0.00    -0.105 SA
BRANCH  23  24
HETATM   24  C21 UNL     1     172.539 186.145 276.732  1.00  0.00     0.119 C 
BRANCH  24  25
HETATM   25  C22 UNL     1     174.019 186.023 276.441  1.00  0.00    -0.049 A 
HETATM   26  C23 UNL     1     174.409 185.223 275.355  1.00  0.00     0.008 A 
HETATM   27  C24 UNL     1     175.760 185.056 275.043  1.00  0.00     0.001 A 
HETATM   28  C25 UNL     1     176.739 185.695 275.803  1.00  0.00     0.000 A 
HETATM   29  C26 UNL     1     176.368 186.498 276.882  1.00  0.00     0.001 A 
HETATM   30  C27 UNL     1     175.018 186.659 277.205  1.00  0.00     0.008 A 
ENDBRANCH  24  25
ENDBRANCH  23  24
ENDBRANCH  10  23
BRANCH   5  31
HETATM   31  O1  UNL     1     170.609 192.457 281.891  1.00  0.00    -0.353 OA
HETATM   32  C14 UNL     1     171.281 192.676 283.131  1.00  0.00     0.210 C 
ENDBRANCH   5  31
BRANCH   7  33
HETATM   33  O3  UNL     1     169.277 189.622 278.078  1.00  0.00    -0.351 OA
HETATM   34  C18 UNL     1     169.552 190.100 276.768  1.00  0.00     0.210 C 
ENDBRANCH   7  33
BRANCH   6  35
HETATM   35  O2  UNL     1     168.822 191.948 279.679  1.00  0.00    -0.351 OA
HETATM   36  C16 UNL     1     168.911 193.120 278.881  1.00  0.00     0.210 C 
ENDBRANCH   6  35
TORSDOF 11
ENDMDL
MODEL 3
REMARK VINA RESULT:      -6.7     13.056     17.702
REMARK  11 active torsions:
REMARK  status: ('A' for Active; 'I' for Inactive)
REMARK    1  A    between atoms: N2_7  and  C6_8 
REMARK    2  A    between atoms: C6_8  and  C7_9 
REMARK    3  A    between atoms: C7_9  and  N3_10 
REMARK    4  A    between atoms: N3_10  and  C8_11 
REMARK    5  A    between atoms: C8_11  and  C9_12 
REMARK    6  A    between atoms: C13_16  and  O1_17 
REMARK    7  A    between atoms: C15_19  and  O2_20 
REMARK    8  A    between atoms: C17_22  and  O3_23 
REMARK    9  A    between atoms: C20_27  and  S1_28 
REMARK   10  A    between atoms: S1_28  and  C21_29 
REMARK   11  A    between atoms: C21_29  and  C22_30 
ROOT
HETATM    1  C9  UNL     1     169.722 188.682 286.511  1.00  0.00     0.006 A 
HETATM    2  C10 UNL     1     170.776 187.783 286.729  1.00  0.00     0.025 A 
HETATM    3  C11 UNL     1     171.738 187.568 285.732  1.00  0.00    -0.001 A 
HETATM    4  C12 UNL     1     172.820 186.714 285.945  1.00  0.00     0.053 A 
HETATM    5  C13 UNL     1     173.837 186.587 284.982  1.00  0.00     0.105 A 
HETATM    6  C15 UNL     1     173.755 187.328 283.773  1.00  0.00     0.137 A 
HETATM    7  C17 UNL     1     172.611 188.129 283.524  1.00  0.00     0.134 A 
HETATM    8  C19 UNL     1     171.627 188.261 284.515  1.00  0.00     0.104 A 
HETATM    9  N4  UNL     1     170.568 189.088 284.306  1.00  0.00    -0.238 NA
HETATM   10  C20 UNL     1     169.623 189.318 285.255  1.00  0.00     0.102 A 
ENDROOT
BRANCH   1  11
HETATM   11  C8  UNL     1     168.757 188.996 287.633  1.00  0.00     0.311 C 
BRANCH  11  12
HETATM   12  N3  UNL     1     167.947 187.807 287.935  1.00  0.00     0.089 N 
HETATM   13  H16 UNL     1     168.375 186.988 287.439  1.00  0.00     0.316 HD
BRANCH  12  14
HETATM   14  C7  UNL     1     167.906 187.502 289.376  1.00  0.00     0.300 C 
BRANCH  14  15
HETATM   15  C6  UNL     1     168.632 186.173 289.654  1.00  0.00     0.302 C 
BRANCH  15  16
HETATM   16  N2  UNL     1     170.042 186.417 290.037  1.00  0.00     0.093 N 
HETATM   17  C3  UNL     1     170.194 187.738 290.687  1.00  0.00     0.302 C 
HETATM   18  C2  UNL     1     171.535 187.873 291.447  1.00  0.00     0.302 C 
HETATM   19  N1  UNL     1     172.544 186.893 291.001  1.00  0.00     0.087 N 
HETATM   20  C1  UNL     1     173.061 187.211 289.657  1.00  0.00     0.310 C 
HETATM   21  C4  UNL     1     172.064 185.492 291.109  1.00  0.00     0.302 C 
HETATM   22  C5  UNL     1     170.539 185.354 290.927  1.00  0.00     0.302 C 
ENDBRANCH  15  16
ENDBRANCH  14  15
ENDBRANCH  12  14
ENDBRANCH  11  12
ENDBRANCH   1  11
BRANCH  10  23
HETATM   23  S1  UNL     1     168.273 190.438 284.857  1.00  0.00    -0.105 SA
BRANCH  23  24
HETATM   24  C21 UNL     1     169.352 191.822 284.315  1.00  0.00     0.119 C 
BRANCH  24  25
HETATM   25  C22 UNL     1     169.297 193.059 285.183  1.00  0.00    -0.049 A 
HETATM   26  C23 UNL     1     170.020 194.186 284.762  1.00  0.00     0.008 A 
HETATM   27  C24 UNL     1     170.024 195.356 285.526  1.00  0.00     0.001 A 
HETATM   28  C25 UNL     1     169.298 195.418 286.715  1.00  0.00     0.000 A 
HETATM   29  C26 UNL     1     168.569 194.309 287.144  1.00  0.00     0.001 A 
HETATM   30  C27 UNL     1     168.571 193.133 286.388  1.00  0.00     0.008 A 
ENDBRANCH  24  25
ENDBRANCH  23  24
ENDBRANCH  10  23
BRANCH   5  31
HETATM   31  O1  UNL     1     174.941 185.766 285.238  1.00  0.00    -0.353 OA
HETATM   32  C14 UNL     1     174.926 184.652 286.130  1.00  0.00     0.210 C 
ENDBRANCH   5  31
BRANCH   7  33
HETATM   33  O3  UNL     1     172.400 188.831 282.321  1.00  0.00    -0.351 OA
HETATM   34  C18 UNL     1     173.036 190.042 281.937  1.00  0.00     0.210 C 
ENDBRANCH   7  33
BRANCH   6  35
HETATM   35  O2  UNL     1     174.779 187.320 282.808  1.00  0.00    -0.351 OA
HETATM   36  C16 UNL     1     174.876 186.488 281.660  1.00  0.00     0.210 C 
ENDBRANCH   6  35
TORSDOF 11
ENDMDL
MODEL 4
REMARK VINA RESULT:      -6.6      8.686     12.899
REMARK  11 active torsions:
REMARK  status: ('A' for Active; 'I' for Inactive)
REMARK    1  A    between atoms: N2_7  and  C6_8 
REMARK    2  A    between atoms: C6_8  and  C7_9 
REMARK    3  A    between atoms: C7_9  and  N3_10 
REMARK    4  A    between atoms: N3_10  and  C8_11 
REMARK    5  A    between atoms: C8_11  and  C9_12 
REMARK    6  A    between atoms: C13_16  and  O1_17 
REMARK    7  A    between atoms: C15_19  and  O2_20 
REMARK    8  A    between atoms: C17_22  and  O3_23 
REMARK    9  A    between atoms: C20_27  and  S1_28 
REMARK   10  A    between atoms: S1_28  and  C21_29 
REMARK   11  A    between atoms: C21_29  and  C22_30 
ROOT
HETATM    1  C9  UNL     1     173.674 187.813 281.547  1.00  0.00     0.006 A 
HETATM    2  C10 UNL     1     174.059 186.940 280.518  1.00  0.00     0.025 A 
HETATM    3  C11 UNL     1     173.279 186.827 279.359  1.00  0.00    -0.001 A 
HETATM    4  C12 UNL     1     173.669 186.001 278.305  1.00  0.00     0.053 A 
HETATM    5  C13 UNL     1     172.939 185.976 277.103  1.00  0.00     0.105 A 
HETATM    6  C15 UNL     1     171.784 186.790 276.966  1.00  0.00     0.137 A 
HETATM    7  C17 UNL     1     171.343 187.564 278.070  1.00  0.00     0.134 A 
HETATM    8  C19 UNL     1     172.108 187.594 279.246  1.00  0.00     0.104 A 
HETATM    9  N4  UNL     1     171.726 188.394 280.277  1.00  0.00    -0.238 NA
HETATM   10  C20 UNL     1     172.463 188.526 281.411  1.00  0.00     0.102 A 
ENDROOT
BRANCH   1  11
HETATM   11  C8  UNL     1     174.580 188.017 282.740  1.00  0.00     0.311 C 
BRANCH  11  12
HETATM   12  N3  UNL     1     175.631 186.988 282.743  1.00  0.00     0.089 N 
HETATM   13  H16 UNL     1     176.552 187.464 282.581  1.00  0.00     0.316 HD
BRANCH  12  14
HETATM   14  C7  UNL     1     175.707 186.262 284.023  1.00  0.00     0.300 C 
BRANCH  14  15
HETATM   15  C6  UNL     1     174.385 185.519 284.287  1.00  0.00     0.302 C 
BRANCH  15  16
HETATM   16  N2  UNL     1     173.889 185.801 285.655  1.00  0.00     0.093 N 
HETATM   17  C3  UNL     1     172.562 185.185 285.874  1.00  0.00     0.302 C 
HETATM   18  C2  UNL     1     172.184 185.111 287.372  1.00  0.00     0.302 C 
HETATM   19  N1  UNL     1     172.967 186.045 288.204  1.00  0.00     0.087 N 
HETATM   20  C1  UNL     1     172.563 187.446 287.983  1.00  0.00     0.310 C 
HETATM   21  C4  UNL     1     174.432 185.847 288.062  1.00  0.00     0.302 C 
HETATM   22  C5  UNL     1     174.844 185.325 286.670  1.00  0.00     0.302 C 
ENDBRANCH  15  16
ENDBRANCH  14  15
ENDBRANCH  12  14
ENDBRANCH  11  12
ENDBRANCH   1  11
BRANCH  10  23
HETATM   23  S1  UNL     1     171.851 189.620 282.701  1.00  0.00    -0.105 SA
BRANCH  23  24
HETATM   24  C21 UNL     1     172.013 191.159 281.712  1.00  0.00     0.119 C 
BRANCH  24  25
HETATM   25  C22 UNL     1     171.000 192.237 282.029  1.00  0.00    -0.049 A 
HETATM   26  C23 UNL     1     170.950 192.722 283.345  1.00  0.00     0.008 A 
HETATM   27  C24 UNL     1     170.027 193.706 283.707  1.00  0.00     0.001 A 
HETATM   28  C25 UNL     1     169.149 194.225 282.757  1.00  0.00     0.000 A 
HETATM   29  C26 UNL     1     169.189 193.759 281.443  1.00  0.00     0.001 A 
HETATM   30  C27 UNL     1     170.104 192.767 281.079  1.00  0.00     0.008 A 
ENDBRANCH  24  25
ENDBRANCH  23  24
ENDBRANCH  10  23
BRANCH   5  31
HETATM   31  O1  UNL     1     173.376 185.180 276.038  1.00  0.00    -0.353 OA
HETATM   32  C14 UNL     1     174.532 185.457 275.248  1.00  0.00     0.210 C 
ENDBRANCH   5  31
BRANCH   7  33
HETATM   33  O3  UNL     1     170.165 188.336 278.059  1.00  0.00    -0.351 OA
HETATM   34  C18 UNL     1     168.843 187.849 278.246  1.00  0.00     0.210 C 
ENDBRANCH   7  33
BRANCH   6  35
HETATM   35  O2  UNL     1     171.060 186.884 275.763  1.00  0.00    -0.351 OA
HETATM   36  C16 UNL     1     171.320 187.748 274.665  1.00  0.00     0.210 C 
ENDBRANCH   6  35
TORSDOF 11
ENDMDL
MODEL 5
REMARK VINA RESULT:      -6.6     10.130     14.757
REMARK  11 active torsions:
REMARK  status: ('A' for Active; 'I' for Inactive)
REMARK    1  A    between atoms: N2_7  and  C6_8 
REMARK    2  A    between atoms: C6_8  and  C7_9 
REMARK    3  A    between atoms: C7_9  and  N3_10 
REMARK    4  A    between atoms: N3_10  and  C8_11 
REMARK    5  A    between atoms: C8_11  and  C9_12 
REMARK    6  A    between atoms: C13_16  and  O1_17 
REMARK    7  A    between atoms: C15_19  and  O2_20 
REMARK    8  A    between atoms: C17_22  and  O3_23 
REMARK    9  A    between atoms: C20_27  and  S1_28 
REMARK   10  A    between atoms: S1_28  and  C21_29 
REMARK   11  A    between atoms: C21_29  and  C22_30 
ROOT
HETATM    1  C9  UNL     1     172.376 188.271 283.469  1.00  0.00     0.006 A 
HETATM    2  C10 UNL     1     171.621 188.364 284.647  1.00  0.00     0.025 A 
HETATM    3  C11 UNL     1     171.929 187.554 285.749  1.00  0.00    -0.001 A 
HETATM    4  C12 UNL     1     171.222 187.664 286.946  1.00  0.00     0.053 A 
HETATM    5  C13 UNL     1     171.607 186.925 288.079  1.00  0.00     0.105 A 
HETATM    6  C15 UNL     1     172.721 186.048 288.001  1.00  0.00     0.137 A 
HETATM    7  C17 UNL     1     173.384 185.876 286.759  1.00  0.00     0.134 A 
HETATM    8  C19 UNL     1     172.999 186.648 285.653  1.00  0.00     0.104 A 
HETATM    9  N4  UNL     1     173.683 186.537 284.483  1.00  0.00    -0.238 NA
HETATM   10  C20 UNL     1     173.409 187.311 283.400  1.00  0.00     0.102 A 
ENDROOT
BRANCH   1  11
HETATM   11  C8  UNL     1     172.112 189.229 282.329  1.00  0.00     0.311 C 
BRANCH  11  12
HETATM   12  N3  UNL     1     171.545 190.479 282.855  1.00  0.00     0.089 N 
HETATM   13  H16 UNL     1     172.330 191.163 282.984  1.00  0.00     0.316 HD
BRANCH  12  14
HETATM   14  C7  UNL     1     170.556 191.080 281.943  1.00  0.00     0.300 C 
BRANCH  14  15
HETATM   15  C6  UNL     1     171.263 191.648 280.699  1.00  0.00     0.302 C 
BRANCH  15  16
HETATM   16  N2  UNL     1     170.771 190.988 279.468  1.00  0.00     0.093 N 
HETATM   17  C3  UNL     1     169.545 190.205 279.741  1.00  0.00     0.302 C 
HETATM   18  C2  UNL     1     168.783 189.830 278.448  1.00  0.00     0.302 C 
HETATM   19  N1  UNL     1     169.631 189.912 277.242  1.00  0.00     0.087 N 
HETATM   20  C1  UNL     1     170.622 188.821 277.194  1.00  0.00     0.310 C 
HETATM   21  C4  UNL     1     170.250 191.250 277.070  1.00  0.00     0.302 C 
HETATM   22  C5  UNL     1     170.517 191.975 278.405  1.00  0.00     0.302 C 
ENDBRANCH  15  16
ENDBRANCH  14  15
ENDBRANCH  12  14
ENDBRANCH  11  12
ENDBRANCH   1  11
BRANCH  10  23
HETATM   23  S1  UNL     1     174.390 187.071 281.912  1.00  0.00    -0.105 SA
BRANCH  23  24
HETATM   24  C21 UNL     1     173.126 186.070 281.033  1.00  0.00     0.119 C 
BRANCH  24  25
HETATM   25  C22 UNL     1     173.216 186.102 279.523  1.00  0.00    -0.049 A 
HETATM   26  C23 UNL     1     172.204 185.458 278.794  1.00  0.00     0.008 A 
HETATM   27  C24 UNL     1     172.236 185.438 277.397  1.00  0.00     0.001 A 
HETATM   28  C25 UNL     1     173.272 186.069 276.711  1.00  0.00     0.000 A 
HETATM   29  C26 UNL     1     174.282 186.719 277.421  1.00  0.00     0.001 A 
HETATM   30  C27 UNL     1     174.260 186.733 278.818  1.00  0.00     0.008 A 
ENDBRANCH  24  25
ENDBRANCH  23  24
ENDBRANCH  10  23
BRANCH   5  31
HETATM   31  O1  UNL     1     170.916 187.089 289.286  1.00  0.00    -0.353 OA
HETATM   32  C14 UNL     1     171.074 188.208 290.158  1.00  0.00     0.210 C 
ENDBRANCH   5  31
BRANCH   7  33
HETATM   33  O3  UNL     1     174.442 184.967 286.562  1.00  0.00    -0.351 OA
HETATM   34  C18 UNL     1     175.824 185.235 286.762  1.00  0.00     0.210 C 
ENDBRANCH   7  33
BRANCH   6  35
HETATM   35  O2  UNL     1     173.217 185.350 289.118  1.00  0.00    -0.351 OA
HETATM   36  C16 UNL     1     174.152 185.817 290.080  1.00  0.00     0.210 C 
ENDBRANCH   6  35
TORSDOF 11
ENDMDL
MODEL 6
REMARK VINA RESULT:      -6.6      7.332     10.988
REMARK  11 active torsions:
REMARK  status: ('A' for Active; 'I' for Inactive)
REMARK    1  A    between atoms: N2_7  and  C6_8 
REMARK    2  A    between atoms: C6_8  and  C7_9 
REMARK    3  A    between atoms: C7_9  and  N3_10 
REMARK    4  A    between atoms: N3_10  and  C8_11 
REMARK    5  A    between atoms: C8_11  and  C9_12 
REMARK    6  A    between atoms: C13_16  and  O1_17 
REMARK    7  A    between atoms: C15_19  and  O2_20 
REMARK    8  A    between atoms: C17_22  and  O3_23 
REMARK    9  A    between atoms: C20_27  and  S1_28 
REMARK   10  A    between atoms: S1_28  and  C21_29 
REMARK   11  A    between atoms: C21_29  and  C22_30 
ROOT
HETATM    1  C9  UNL     1     172.656 186.590 279.085  1.00  0.00     0.006 A 
HETATM    2  C10 UNL     1     173.855 186.135 278.519  1.00  0.00     0.025 A 
HETATM    3  C11 UNL     1     174.069 186.236 277.138  1.00  0.00    -0.001 A 
HETATM    4  C12 UNL     1     175.273 185.834 276.561  1.00  0.00     0.053 A 
HETATM    5  C13 UNL     1     175.519 186.039 275.192  1.00  0.00     0.105 A 
HETATM    6  C15 UNL     1     174.526 186.652 274.384  1.00  0.00     0.137 A 
HETATM    7  C17 UNL     1     173.271 186.983 274.956  1.00  0.00     0.134 A 
HETATM    8  C19 UNL     1     173.064 186.796 276.331  1.00  0.00     0.104 A 
HETATM    9  N4  UNL     1     171.887 187.182 276.893  1.00  0.00    -0.238 NA
HETATM   10  C20 UNL     1     171.654 187.098 278.229  1.00  0.00     0.102 A 
ENDROOT
BRANCH   1  11
HETATM   11  C8  UNL     1     172.482 186.585 280.587  1.00  0.00     0.311 C 
BRANCH  11  12
HETATM   12  N3  UNL     1     173.117 185.386 281.153  1.00  0.00     0.089 N 
HETATM   13  H16 UNL     1     173.505 184.818 280.361  1.00  0.00     0.316 HD
BRANCH  12  14
HETATM   14  C7  UNL     1     174.224 185.712 282.071  1.00  0.00     0.300 C 
BRANCH  14  15
HETATM   15  C6  UNL     1     173.748 186.720 283.133  1.00  0.00     0.302 C 
BRANCH  15  16
HETATM   16  N2  UNL     1     173.824 186.128 284.489  1.00  0.00     0.093 N 
HETATM   17  C3  UNL     1     172.471 185.858 285.025  1.00  0.00     0.302 C 
HETATM   18  C2  UNL     1     172.496 184.898 286.237  1.00  0.00     0.302 C 
HETATM   19  N1  UNL     1     173.824 184.823 286.878  1.00  0.00     0.087 N 
HETATM   20  C1  UNL     1     174.147 186.059 287.616  1.00  0.00     0.310 C 
HETATM   21  C4  UNL     1     174.895 184.432 285.927  1.00  0.00     0.302 C 
HETATM   22  C5  UNL     1     174.622 184.891 284.480  1.00  0.00     0.302 C 
ENDBRANCH  15  16
ENDBRANCH  14  15
ENDBRANCH  12  14
ENDBRANCH  11  12
ENDBRANCH   1  11
BRANCH  10  23
HETATM   23  S1  UNL     1     170.058 187.647 278.850  1.00  0.00    -0.105 SA
BRANCH  23  24
HETATM   24  C21 UNL     1     170.517 189.422 278.956  1.00  0.00     0.119 C 
BRANCH  24  25
HETATM   25  C22 UNL     1     170.541 189.999 280.355  1.00  0.00    -0.049 A 
HETATM   26  C23 UNL     1     171.754 189.954 281.060  1.00  0.00     0.008 A 
HETATM   27  C24 UNL     1     171.841 190.455 282.361  1.00  0.00     0.001 A 
HETATM   28  C25 UNL     1     170.720 191.016 282.971  1.00  0.00     0.000 A 
HETATM   29  C26 UNL     1     169.508 191.074 282.282  1.00  0.00     0.001 A 
HETATM   30  C27 UNL     1     169.414 190.564 280.984  1.00  0.00     0.008 A 
ENDBRANCH  24  25
ENDBRANCH  23  24
ENDBRANCH  10  23
BRANCH   5  31
HETATM   31  O1  UNL     1     176.755 185.675 274.643  1.00  0.00    -0.353 OA
HETATM   32  C14 UNL     1     177.972 186.388 274.858  1.00  0.00     0.210 C 
ENDBRANCH   5  31
BRANCH   7  33
HETATM   33  O3  UNL     1     172.195 187.515 274.218  1.00  0.00    -0.351 OA
HETATM   34  C18 UNL     1     172.031 188.876 273.842  1.00  0.00     0.210 C 
ENDBRANCH   7  33
BRANCH   6  35
HETATM   35  O2  UNL     1     174.740 186.971 273.030  1.00  0.00    -0.351 OA
HETATM   36  C16 UNL     1     175.451 188.085 272.509  1.00  0.00     0.210 C 
ENDBRANCH   6  35
TORSDOF 11
ENDMDL
MODEL 7
REMARK VINA RESULT:      -6.6      2.746      4.659
REMARK  11 active torsions:
REMARK  status: ('A' for Active; 'I' for Inactive)
REMARK    1  A    between atoms: N2_7  and  C6_8 
REMARK    2  A    between atoms: C6_8  and  C7_9 
REMARK    3  A    between atoms: C7_9  and  N3_10 
REMARK    4  A    between atoms: N3_10  and  C8_11 
REMARK    5  A    between atoms: C8_11  and  C9_12 
REMARK    6  A    between atoms: C13_16  and  O1_17 
REMARK    7  A    between atoms: C15_19  and  O2_20 
REMARK    8  A    between atoms: C17_22  and  O3_23 
REMARK    9  A    between atoms: C20_27  and  S1_28 
REMARK   10  A    between atoms: S1_28  and  C21_29 
REMARK   11  A    between atoms: C21_29  and  C22_30 
ROOT
HETATM    1  C9  UNL     1     173.917 187.868 269.533  1.00  0.00     0.006 A 
HETATM    2  C10 UNL     1     173.987 187.530 268.173  1.00  0.00     0.025 A 
HETATM    3  C11 UNL     1     174.741 186.423 267.758  1.00  0.00    -0.001 A 
HETATM    4  C12 UNL     1     174.785 186.042 266.418  1.00  0.00     0.053 A 
HETATM    5  C13 UNL     1     175.455 184.869 266.025  1.00  0.00     0.105 A 
HETATM    6  C15 UNL     1     176.103 184.070 267.004  1.00  0.00     0.137 A 
HETATM    7  C17 UNL     1     176.127 184.506 268.353  1.00  0.00     0.134 A 
HETATM    8  C19 UNL     1     175.425 185.663 268.721  1.00  0.00     0.104 A 
HETATM    9  N4  UNL     1     175.386 186.040 270.027  1.00  0.00    -0.238 NA
HETATM   10  C20 UNL     1     174.662 187.106 270.459  1.00  0.00     0.102 A 
ENDROOT
BRANCH   1  11
HETATM   11  C8  UNL     1     173.009 188.990 269.984  1.00  0.00     0.311 C 
BRANCH  11  12
HETATM   12  N3  UNL     1     171.643 188.743 269.501  1.00  0.00     0.089 N 
HETATM   13  H16 UNL     1     171.708 188.285 268.560  1.00  0.00     0.316 HD
BRANCH  12  14
HETATM   14  C7  UNL     1     170.878 187.854 270.394  1.00  0.00     0.300 C 
BRANCH  14  15
HETATM   15  C6  UNL     1     170.374 186.628 269.611  1.00  0.00     0.302 C 
BRANCH  15  16
HETATM   16  N2  UNL     1     171.122 185.411 270.004  1.00  0.00     0.093 N 
HETATM   17  C3  UNL     1     170.289 184.528 270.850  1.00  0.00     0.302 C 
HETATM   18  C2  UNL     1     170.864 183.096 270.956  1.00  0.00     0.302 C 
HETATM   19  N1  UNL     1     172.296 183.029 270.604  1.00  0.00     0.087 N 
HETATM   20  C1  UNL     1     173.145 183.645 271.641  1.00  0.00     0.310 C 
HETATM   21  C4  UNL     1     172.576 183.565 269.248  1.00  0.00     0.302 C 
HETATM   22  C5  UNL     1     171.598 184.678 268.818  1.00  0.00     0.302 C 
ENDBRANCH  15  16
ENDBRANCH  14  15
ENDBRANCH  12  14
ENDBRANCH  11  12
ENDBRANCH   1  11
BRANCH  10  23
HETATM   23  S1  UNL     1     174.688 187.498 272.214  1.00  0.00    -0.105 SA
BRANCH  23  24
HETATM   24  C21 UNL     1     176.343 186.764 272.529  1.00  0.00     0.119 C 
BRANCH  24  25
HETATM   25  C22 UNL     1     176.535 186.181 273.911  1.00  0.00    -0.049 A 
HETATM   26  C23 UNL     1     177.758 186.421 274.559  1.00  0.00     0.008 A 
HETATM   27  C24 UNL     1     178.005 185.898 275.830  1.00  0.00     0.001 A 
HETATM   28  C25 UNL     1     177.032 185.136 276.475  1.00  0.00     0.000 A 
HETATM   29  C26 UNL     1     175.809 184.893 275.849  1.00  0.00     0.001 A 
HETATM   30  C27 UNL     1     175.561 185.406 274.573  1.00  0.00     0.008 A 
ENDBRANCH  24  25
ENDBRANCH  23  24
ENDBRANCH  10  23
BRANCH   5  31
HETATM   31  O1  UNL     1     175.444 184.476 264.682  1.00  0.00    -0.353 OA
HETATM   32  C14 UNL     1     174.302 183.948 264.008  1.00  0.00     0.210 C 
ENDBRANCH   5  31
BRANCH   7  33
HETATM   33  O3  UNL     1     176.815 183.827 269.378  1.00  0.00    -0.351 OA
HETATM   34  C18 UNL     1     176.328 182.718 270.121  1.00  0.00     0.210 C 
ENDBRANCH   7  33
BRANCH   6  35
HETATM   35  O2  UNL     1     176.712 182.839 266.696  1.00  0.00    -0.351 OA
HETATM   36  C16 UNL     1     176.081 181.570 266.583  1.00  0.00     0.210 C 
ENDBRANCH   6  35
TORSDOF 11
ENDMDL
MODEL 8
REMARK VINA RESULT:      -6.4     13.798     18.072
REMARK  11 active torsions:
REMARK  status: ('A' for Active; 'I' for Inactive)
REMARK    1  A    between atoms: N2_7  and  C6_8 
REMARK    2  A    between atoms: C6_8  and  C7_9 
REMARK    3  A    between atoms: C7_9  and  N3_10 
REMARK    4  A    between atoms: N3_10  and  C8_11 
REMARK    5  A    between atoms: C8_11  and  C9_12 
REMARK    6  A    between atoms: C13_16  and  O1_17 
REMARK    7  A    between atoms: C15_19  and  O2_20 
REMARK    8  A    between atoms: C17_22  and  O3_23 
REMARK    9  A    between atoms: C20_27  and  S1_28 
REMARK   10  A    between atoms: S1_28  and  C21_29 
REMARK   11  A    between atoms: C21_29  and  C22_30 
ROOT
HETATM    1  C9  UNL     1     171.452 186.113 287.373  1.00  0.00     0.006 A 
HETATM    2  C10 UNL     1     172.348 185.452 286.520  1.00  0.00     0.025 A 
HETATM    3  C11 UNL     1     172.801 186.078 285.351  1.00  0.00    -0.001 A 
HETATM    4  C12 UNL     1     173.729 185.459 284.514  1.00  0.00     0.053 A 
HETATM    5  C13 UNL     1     174.260 186.137 283.402  1.00  0.00     0.105 A 
HETATM    6  C15 UNL     1     173.838 187.463 283.122  1.00  0.00     0.137 A 
HETATM    7  C17 UNL     1     172.833 188.058 283.926  1.00  0.00     0.134 A 
HETATM    8  C19 UNL     1     172.344 187.371 285.046  1.00  0.00     0.104 A 
HETATM    9  N4  UNL     1     171.434 187.971 285.860  1.00  0.00    -0.238 NA
HETATM   10  C20 UNL     1     170.979 187.390 287.001  1.00  0.00     0.102 A 
ENDROOT
BRANCH   1  11
HETATM   11  C8  UNL     1     171.059 185.480 288.689  1.00  0.00     0.311 C 
BRANCH  11  12
HETATM   12  N3  UNL     1     172.241 185.370 289.556  1.00  0.00     0.089 N 
HETATM   13  H16 UNL     1     173.083 185.240 288.944  1.00  0.00     0.316 HD
BRANCH  12  14
HETATM   14  C7  UNL     1     172.453 186.574 290.380  1.00  0.00     0.300 C 
BRANCH  14  15
HETATM   15  C6  UNL     1     172.243 186.238 291.868  1.00  0.00     0.302 C 
BRANCH  15  16
HETATM   16  N2  UNL     1     170.839 186.492 292.269  1.00  0.00     0.093 N 
HETATM   17  C3  UNL     1     170.735 186.692 293.731  1.00  0.00     0.302 C 
HETATM   18  C2  UNL     1     169.392 187.339 294.145  1.00  0.00     0.302 C 
HETATM   19  N1  UNL     1     168.349 187.197 293.111  1.00  0.00     0.087 N 
HETATM   20  C1  UNL     1     167.861 185.809 293.011  1.00  0.00     0.310 C 
HETATM   21  C4  UNL     1     168.768 187.749 291.798  1.00  0.00     0.302 C 
HETATM   22  C5  UNL     1     170.289 187.657 291.556  1.00  0.00     0.302 C 
ENDBRANCH  15  16
ENDBRANCH  14  15
ENDBRANCH  12  14
ENDBRANCH  11  12
ENDBRANCH   1  11
BRANCH  10  23
HETATM   23  S1  UNL     1     169.780 188.290 287.995  1.00  0.00    -0.105 SA
BRANCH  23  24
HETATM   24  C21 UNL     1     168.808 188.915 286.567  1.00  0.00     0.119 C 
BRANCH  24  25
HETATM   25  C22 UNL     1     168.730 190.421 286.451  1.00  0.00    -0.049 A 
HETATM   26  C23 UNL     1     168.811 190.983 285.167  1.00  0.00     0.008 A 
HETATM   27  C24 UNL     1     168.761 192.368 284.991  1.00  0.00     0.001 A 
HETATM   28  C25 UNL     1     168.620 193.209 286.094  1.00  0.00     0.000 A 
HETATM   29  C26 UNL     1     168.532 192.666 287.376  1.00  0.00     0.001 A 
HETATM   30  C27 UNL     1     168.591 191.282 287.558  1.00  0.00     0.008 A 
ENDBRANCH  24  25
ENDBRANCH  23  24
ENDBRANCH  10  23
BRANCH   5  31
HETATM   31  O1  UNL     1     175.229 185.516 282.604  1.00  0.00    -0.353 OA
HETATM   32  C14 UNL     1     176.619 185.835 282.633  1.00  0.00     0.210 C 
ENDBRANCH   5  31
BRANCH   7  33
HETATM   33  O3  UNL     1     172.290 189.334 283.676  1.00  0.00    -0.351 OA
HETATM   34  C18 UNL     1     171.358 189.662 282.655  1.00  0.00     0.210 C 
ENDBRANCH   7  33
BRANCH   6  35
HETATM   35  O2  UNL     1     174.395 188.232 282.083  1.00  0.00    -0.351 OA
HETATM   36  C16 UNL     1     174.184 188.076 280.686  1.00  0.00     0.210 C 
ENDBRANCH   6  35
TORSDOF 11
ENDMDL
MODEL 9
REMARK VINA RESULT:      -6.2      3.382      9.404
REMARK  11 active torsions:
REMARK  status: ('A' for Active; 'I' for Inactive)
REMARK    1  A    between atoms: N2_7  and  C6_8 
REMARK    2  A    between atoms: C6_8  and  C7_9 
REMARK    3  A    between atoms: C7_9  and  N3_10 
REMARK    4  A    between atoms: N3_10  and  C8_11 
REMARK    5  A    between atoms: C8_11  and  C9_12 
REMARK    6  A    between atoms: C13_16  and  O1_17 
REMARK    7  A    between atoms: C15_19  and  O2_20 
REMARK    8  A    between atoms: C17_22  and  O3_23 
REMARK    9  A    between atoms: C20_27  and  S1_28 
REMARK   10  A    between atoms: S1_28  and  C21_29 
REMARK   11  A    between atoms: C21_29  and  C22_30 
ROOT
HETATM    1  C9  UNL     1     175.313 185.990 269.370  1.00  0.00     0.006 A 
HETATM    2  C10 UNL     1     175.882 185.394 270.505  1.00  0.00     0.025 A 
HETATM    3  C11 UNL     1     175.733 185.989 271.765  1.00  0.00    -0.001 A 
HETATM    4  C12 UNL     1     176.249 185.389 272.913  1.00  0.00     0.053 A 
HETATM    5  C13 UNL     1     176.002 185.936 274.185  1.00  0.00     0.105 A 
HETATM    6  C15 UNL     1     175.228 187.121 274.301  1.00  0.00     0.137 A 
HETATM    7  C17 UNL     1     174.776 187.774 273.126  1.00  0.00     0.134 A 
HETATM    8  C19 UNL     1     175.011 187.190 271.873  1.00  0.00     0.104 A 
HETATM    9  N4  UNL     1     174.513 187.778 270.752  1.00  0.00    -0.238 NA
HETATM   10  C20 UNL     1     174.640 187.223 269.518  1.00  0.00     0.102 A 
ENDROOT
BRANCH   1  11
HETATM   11  C8  UNL     1     175.378 185.282 268.035  1.00  0.00     0.311 C 
BRANCH  11  12
HETATM   12  N3  UNL     1     176.760 185.301 267.534  1.00  0.00     0.089 N 
HETATM   13  H16 UNL     1     177.407 185.276 268.359  1.00  0.00     0.316 HD
BRANCH  12  14
HETATM   14  C7  UNL     1     177.066 184.143 266.675  1.00  0.00     0.300 C 
BRANCH  14  15
HETATM   15  C6  UNL     1     176.242 184.218 265.376  1.00  0.00     0.302 C 
BRANCH  15  16
HETATM   16  N2  UNL     1     176.650 183.150 264.434  1.00  0.00     0.093 N 
HETATM   17  C3  UNL     1     177.238 183.725 263.204  1.00  0.00     0.302 C 
HETATM   18  C2  UNL     1     178.024 182.679 262.379  1.00  0.00     0.302 C 
HETATM   19  N1  UNL     1     177.654 181.291 262.718  1.00  0.00     0.087 N 
HETATM   20  C1  UNL     1     176.310 180.944 262.218  1.00  0.00     0.310 C 
HETATM   21  C4  UNL     1     177.817 180.993 264.163  1.00  0.00     0.302 C 
HETATM   22  C5  UNL     1     177.603 182.224 265.067  1.00  0.00     0.302 C 
ENDBRANCH  15  16
ENDBRANCH  14  15
ENDBRANCH  12  14
ENDBRANCH  11  12
ENDBRANCH   1  11
BRANCH  10  23
HETATM   23  S1  UNL     1     173.933 188.097 268.114  1.00  0.00    -0.105 SA
BRANCH  23  24
HETATM   24  C21 UNL     1     174.977 189.597 268.303  1.00  0.00     0.119 C 
BRANCH  24  25
HETATM   25  C22 UNL     1     174.498 190.587 269.342  1.00  0.00    -0.049 A 
HETATM   26  C23 UNL     1     175.465 191.205 270.151  1.00  0.00     0.008 A 
HETATM   27  C24 UNL     1     175.089 192.118 271.139  1.00  0.00     0.001 A 
HETATM   28  C25 UNL     1     173.743 192.433 271.326  1.00  0.00     0.000 A 
HETATM   29  C26 UNL     1     172.770 191.832 270.527  1.00  0.00     0.001 A 
HETATM   30  C27 UNL     1     173.142 190.911 269.544  1.00  0.00     0.008 A 
ENDBRANCH  24  25
ENDBRANCH  23  24
ENDBRANCH  10  23
BRANCH   5  31
HETATM   31  O1  UNL     1     176.485 185.289 275.328  1.00  0.00    -0.353 OA
HETATM   32  C14 UNL     1     177.646 185.694 276.052  1.00  0.00     0.210 C 
ENDBRANCH   5  31
BRANCH   7  33
HETATM   33  O3  UNL     1     174.076 188.997 273.136  1.00  0.00    -0.351 OA
HETATM   34  C18 UNL     1     172.684 189.162 273.369  1.00  0.00     0.210 C 
ENDBRANCH   7  33
BRANCH   6  35
HETATM   35  O2  UNL     1     174.864 187.671 275.544  1.00  0.00    -0.351 OA
HETATM   36  C16 UNL     1     173.864 187.199 276.436  1.00  0.00     0.210 C 
ENDBRANCH   6  35
TORSDOF 11
ENDMDL
