MODEL 1
REMARK VINA RESULT:      -9.0      0.000      0.000
REMARK  9 active torsions:
REMARK  status: ('A' for Active; 'I' for Inactive)
REMARK    1  A    between atoms: C5_7  and  S1_8 
REMARK    2  A    between atoms: S1_8  and  C6_9 
REMARK    3  A    between atoms: C6_9  and  C7_10 
REMARK    4  A    between atoms: C13_16  and  C14_17 
REMARK    5  A    between atoms: C14_17  and  N2_18 
REMARK    6  A    between atoms: N2_18  and  C15_19 
REMARK    7  A    between atoms: C15_19  and  C16_20 
REMARK    8  A    between atoms: C19_23  and  C20_24 
REMARK    9  A    between atoms: C20_24  and  N3_25 
ROOT
HETATM    1 BR1  UNL     1     171.214 192.634 283.352  1.00  0.00    -0.051 Br
HETATM    2  C1  UNL     1     171.256 191.168 282.127  1.00  0.00     0.011 A 
HETATM    3  C2  UNL     1     170.516 191.231 280.940  1.00  0.00     0.021 A 
HETATM    4  C3  UNL     1     170.547 190.167 280.036  1.00  0.00     0.034 A 
HETATM    5  C4  UNL     1     171.321 189.035 280.314  1.00  0.00     0.068 A 
HETATM    6  N1  UNL     1     171.360 188.004 279.431  1.00  0.00    -0.241 NA
HETATM    7  C5  UNL     1     172.087 186.878 279.659  1.00  0.00     0.102 A 
HETATM    8  C13 UNL     1     172.853 186.759 280.843  1.00  0.00     0.006 A 
HETATM    9  C27 UNL     1     172.833 187.821 281.762  1.00  0.00     0.025 A 
HETATM   10  C28 UNL     1     172.065 188.965 281.508  1.00  0.00    -0.005 A 
HETATM   11  C29 UNL     1     172.030 190.037 282.414  1.00  0.00     0.032 A 
ENDROOT
BRANCH   8  12
HETATM   12  C14 UNL     1     173.633 185.508 281.173  1.00  0.00     0.311 C 
BRANCH  12  13
HETATM   13  N2  UNL     1     173.268 185.006 282.505  1.00  0.00     0.091 N 
HETATM   14  H12 UNL     1     172.890 184.037 282.385  1.00  0.00     0.316 HD
BRANCH  13  15
HETATM   15  C15 UNL     1     174.444 184.915 283.384  1.00  0.00     0.308 C 
BRANCH  15  16
HETATM   16  C16 UNL     1     174.137 185.465 284.755  1.00  0.00    -0.030 A 
HETATM   17  C17 UNL     1     174.541 184.767 285.902  1.00  0.00     0.009 A 
HETATM   18  C18 UNL     1     174.202 185.239 287.173  1.00  0.00     0.009 A 
HETATM   19  C19 UNL     1     173.467 186.427 287.315  1.00  0.00    -0.030 A 
HETATM   20  C25 UNL     1     173.086 187.142 286.167  1.00  0.00     0.009 A 
HETATM   21  C26 UNL     1     173.415 186.663 284.896  1.00  0.00     0.009 A 
BRANCH  19  22
HETATM   22  C20 UNL     1     173.086 186.936 288.683  1.00  0.00     0.311 C 
BRANCH  22  23
HETATM   23  N3  UNL     1     172.636 185.829 289.549  1.00  0.00     0.092 N 
HETATM   24  C21 UNL     1     173.515 185.626 290.705  1.00  0.00     0.273 C 
HETATM   25  C22 UNL     1     172.666 184.991 291.791  1.00  0.00     0.032 C 
HETATM   26  C23 UNL     1     171.234 185.367 291.448  1.00  0.00     0.032 C 
HETATM   27  C24 UNL     1     171.307 186.094 290.111  1.00  0.00     0.273 C 
ENDBRANCH  22  23
ENDBRANCH  19  22
ENDBRANCH  15  16
ENDBRANCH  13  15
ENDBRANCH  12  13
ENDBRANCH   8  12
BRANCH   7  28
HETATM   28  S1  UNL     1     172.067 185.598 278.397  1.00  0.00    -0.105 SA
BRANCH  28  29
HETATM   29  C6  UNL     1     172.681 186.669 277.055  1.00  0.00     0.119 C 
BRANCH  29  30
HETATM   30  C7  UNL     1     174.058 186.252 276.615  1.00  0.00    -0.049 A 
HETATM   31  C8  UNL     1     174.228 185.317 275.577  1.00  0.00     0.008 A 
HETATM   32  C9  UNL     1     175.515 184.933 275.182  1.00  0.00     0.001 A 
HETATM   33  C10 UNL     1     176.635 185.471 275.824  1.00  0.00     0.000 A 
HETATM   34  C11 UNL     1     176.471 186.397 276.859  1.00  0.00     0.001 A 
HETATM   35  C12 UNL     1     175.190 186.785 277.256  1.00  0.00     0.008 A 
ENDBRANCH  29  30
ENDBRANCH  28  29
ENDBRANCH   7  28
TORSDOF 9
ENDMDL
MODEL 2
REMARK VINA RESULT:      -8.3      3.320     10.485
REMARK  9 active torsions:
REMARK  status: ('A' for Active; 'I' for Inactive)
REMARK    1  A    between atoms: C5_7  and  S1_8 
REMARK    2  A    between atoms: S1_8  and  C6_9 
REMARK    3  A    between atoms: C6_9  and  C7_10 
REMARK    4  A    between atoms: C13_16  and  C14_17 
REMARK    5  A    between atoms: C14_17  and  N2_18 
REMARK    6  A    between atoms: N2_18  and  C15_19 
REMARK    7  A    between atoms: C15_19  and  C16_20 
REMARK    8  A    between atoms: C19_23  and  C20_24 
REMARK    9  A    between atoms: C20_24  and  N3_25 
ROOT
HETATM    1 BR1  UNL     1     169.101 190.560 283.535  1.00  0.00    -0.051 Br
HETATM    2  C1  UNL     1     169.474 189.605 285.147  1.00  0.00     0.011 A 
HETATM    3  C2  UNL     1     168.710 189.849 286.294  1.00  0.00     0.021 A 
HETATM    4  C3  UNL     1     168.972 189.150 287.475  1.00  0.00     0.034 A 
HETATM    5  C4  UNL     1     169.999 188.200 287.513  1.00  0.00     0.068 A 
HETATM    6  N1  UNL     1     170.247 187.512 288.656  1.00  0.00    -0.241 NA
HETATM    7  C5  UNL     1     171.239 186.587 288.748  1.00  0.00     0.102 A 
HETATM    8  C13 UNL     1     172.045 186.301 287.620  1.00  0.00     0.006 A 
HETATM    9  C27 UNL     1     171.794 186.996 286.425  1.00  0.00     0.025 A 
HETATM   10  C28 UNL     1     170.773 187.952 286.362  1.00  0.00    -0.005 A 
HETATM   11  C29 UNL     1     170.506 188.658 285.178  1.00  0.00     0.032 A 
ENDROOT
BRANCH   8  12
HETATM   12  C14 UNL     1     173.197 185.325 287.682  1.00  0.00     0.311 C 
BRANCH  12  13
HETATM   13  N2  UNL     1     174.353 185.840 286.935  1.00  0.00     0.091 N 
HETATM   14  H12 UNL     1     175.135 185.979 287.619  1.00  0.00     0.316 HD
BRANCH  13  15
HETATM   15  C15 UNL     1     174.813 184.873 285.927  1.00  0.00     0.308 C 
BRANCH  15  16
HETATM   16  C16 UNL     1     174.563 185.389 284.531  1.00  0.00    -0.030 A 
HETATM   17  C17 UNL     1     173.303 185.229 283.936  1.00  0.00     0.009 A 
HETATM   18  C18 UNL     1     173.085 185.647 282.620  1.00  0.00     0.009 A 
HETATM   19  C19 UNL     1     174.121 186.247 281.887  1.00  0.00    -0.030 A 
HETATM   20  C25 UNL     1     175.375 186.432 282.492  1.00  0.00     0.009 A 
HETATM   21  C26 UNL     1     175.596 186.004 283.804  1.00  0.00     0.009 A 
BRANCH  19  22
HETATM   22  C20 UNL     1     173.897 186.689 280.462  1.00  0.00     0.311 C 
BRANCH  22  23
HETATM   23  N3  UNL     1     172.597 186.203 279.959  1.00  0.00     0.092 N 
HETATM   24  C21 UNL     1     171.686 187.297 279.607  1.00  0.00     0.273 C 
HETATM   25  C22 UNL     1     170.739 186.751 278.555  1.00  0.00     0.032 C 
HETATM   26  C23 UNL     1     171.473 185.578 277.927  1.00  0.00     0.032 C 
HETATM   27  C24 UNL     1     172.757 185.418 278.731  1.00  0.00     0.273 C 
ENDBRANCH  22  23
ENDBRANCH  19  22
ENDBRANCH  15  16
ENDBRANCH  13  15
ENDBRANCH  12  13
ENDBRANCH   8  12
BRANCH   7  28
HETATM   28  S1  UNL     1     171.447 185.734 290.317  1.00  0.00    -0.105 SA
BRANCH  28  29
HETATM   29  C6  UNL     1     171.413 187.243 291.339  1.00  0.00     0.119 C 
BRANCH  29  30
HETATM   30  C7  UNL     1     170.264 187.214 292.311  1.00  0.00    -0.049 A 
HETATM   31  C8  UNL     1     168.944 187.409 291.867  1.00  0.00     0.008 A 
HETATM   32  C9  UNL     1     167.885 187.386 292.782  1.00  0.00     0.001 A 
HETATM   33  C10 UNL     1     168.137 187.177 294.141  1.00  0.00     0.000 A 
HETATM   34  C11 UNL     1     169.448 186.987 294.588  1.00  0.00     0.001 A 
HETATM   35  C12 UNL     1     170.509 187.007 293.679  1.00  0.00     0.008 A 
ENDBRANCH  29  30
ENDBRANCH  28  29
ENDBRANCH   7  28
TORSDOF 9
ENDMDL
MODEL 3
REMARK VINA RESULT:      -8.3      4.242      7.197
REMARK  9 active torsions:
REMARK  status: ('A' for Active; 'I' for Inactive)
REMARK    1  A    between atoms: C5_7  and  S1_8 
REMARK    2  A    between atoms: S1_8  and  C6_9 
REMARK    3  A    between atoms: C6_9  and  C7_10 
REMARK    4  A    between atoms: C13_16  and  C14_17 
REMARK    5  A    between atoms: C14_17  and  N2_18 
REMARK    6  A    between atoms: N2_18  and  C15_19 
REMARK    7  A    between atoms: C15_19  and  C16_20 
REMARK    8  A    between atoms: C19_23  and  C20_24 
REMARK    9  A    between atoms: C20_24  and  N3_25 
ROOT
HETATM    1 BR1  UNL     1     174.034 194.202 272.466  1.00  0.00    -0.051 Br
HETATM    2  C1  UNL     1     174.142 192.314 272.194  1.00  0.00     0.011 A 
HETATM    3  C2  UNL     1     174.814 191.808 271.075  1.00  0.00     0.021 A 
HETATM    4  C3  UNL     1     174.903 190.429 270.873  1.00  0.00     0.034 A 
HETATM    5  C4  UNL     1     174.322 189.548 271.792  1.00  0.00     0.068 A 
HETATM    6  N1  UNL     1     174.417 188.207 271.602  1.00  0.00    -0.241 NA
HETATM    7  C5  UNL     1     173.861 187.310 272.459  1.00  0.00     0.102 A 
HETATM    8  C13 UNL     1     173.168 187.764 273.606  1.00  0.00     0.006 A 
HETATM    9  C27 UNL     1     173.069 189.149 273.824  1.00  0.00     0.025 A 
HETATM   10  C28 UNL     1     173.642 190.051 272.918  1.00  0.00    -0.005 A 
HETATM   11  C29 UNL     1     173.554 191.438 273.116  1.00  0.00     0.032 A 
ENDROOT
BRANCH   8  12
HETATM   12  C14 UNL     1     172.482 186.814 274.560  1.00  0.00     0.311 C 
BRANCH  12  13
HETATM   13  N2  UNL     1     172.840 187.127 275.950  1.00  0.00     0.091 N 
HETATM   14  H12 UNL     1     172.153 187.834 276.303  1.00  0.00     0.316 HD
BRANCH  13  15
HETATM   15  C15 UNL     1     172.734 185.938 276.811  1.00  0.00     0.308 C 
BRANCH  15  16
HETATM   16  C16 UNL     1     173.028 186.285 278.249  1.00  0.00    -0.030 A 
HETATM   17  C17 UNL     1     172.046 186.102 279.234  1.00  0.00     0.009 A 
HETATM   18  C18 UNL     1     172.291 186.483 280.556  1.00  0.00     0.009 A 
HETATM   19  C19 UNL     1     173.529 187.038 280.915  1.00  0.00    -0.030 A 
HETATM   20  C25 UNL     1     174.523 187.196 279.935  1.00  0.00     0.009 A 
HETATM   21  C26 UNL     1     174.273 186.825 278.611  1.00  0.00     0.009 A 
BRANCH  19  22
HETATM   22  C20 UNL     1     173.797 187.463 282.338  1.00  0.00     0.311 C 
BRANCH  22  23
HETATM   23  N3  UNL     1     173.664 186.319 283.262  1.00  0.00     0.092 N 
HETATM   24  C21 UNL     1     174.729 185.327 283.084  1.00  0.00     0.273 C 
HETATM   25  C22 UNL     1     174.883 184.612 284.415  1.00  0.00     0.032 C 
HETATM   26  C23 UNL     1     174.325 185.574 285.451  1.00  0.00     0.032 C 
HETATM   27  C24 UNL     1     173.759 186.747 284.662  1.00  0.00     0.273 C 
ENDBRANCH  22  23
ENDBRANCH  19  22
ENDBRANCH  15  16
ENDBRANCH  13  15
ENDBRANCH  12  13
ENDBRANCH   8  12
BRANCH   7  28
HETATM   28  S1  UNL     1     174.079 185.561 272.100  1.00  0.00    -0.105 SA
BRANCH  28  29
HETATM   29  C6  UNL     1     175.899 185.588 272.215  1.00  0.00     0.119 C 
BRANCH  29  30
HETATM   30  C7  UNL     1     176.352 185.626 273.649  1.00  0.00    -0.049 A 
HETATM   31  C8  UNL     1     175.650 184.920 274.643  1.00  0.00     0.008 A 
HETATM   32  C9  UNL     1     176.078 184.969 275.974  1.00  0.00     0.001 A 
HETATM   33  C10 UNL     1     177.200 185.727 276.323  1.00  0.00     0.000 A 
HETATM   34  C11 UNL     1     177.899 186.435 275.340  1.00  0.00     0.001 A 
HETATM   35  C12 UNL     1     177.477 186.388 274.009  1.00  0.00     0.008 A 
ENDBRANCH  29  30
ENDBRANCH  28  29
ENDBRANCH   7  28
TORSDOF 9
ENDMDL
MODEL 4
REMARK VINA RESULT:      -8.1      9.703     14.325
REMARK  9 active torsions:
REMARK  status: ('A' for Active; 'I' for Inactive)
REMARK    1  A    between atoms: C5_7  and  S1_8 
REMARK    2  A    between atoms: S1_8  and  C6_9 
REMARK    3  A    between atoms: C6_9  and  C7_10 
REMARK    4  A    between atoms: C13_16  and  C14_17 
REMARK    5  A    between atoms: C14_17  and  N2_18 
REMARK    6  A    between atoms: N2_18  and  C15_19 
REMARK    7  A    between atoms: C15_19  and  C16_20 
REMARK    8  A    between atoms: C19_23  and  C20_24 
REMARK    9  A    between atoms: C20_24  and  N3_25 
ROOT
HETATM    1 BR1  UNL     1     175.287 191.083 270.132  1.00  0.00    -0.051 Br
HETATM    2  C1  UNL     1     174.531 189.778 268.959  1.00  0.00     0.011 A 
HETATM    3  C2  UNL     1     173.414 190.103 268.181  1.00  0.00     0.021 A 
HETATM    4  C3  UNL     1     172.860 189.158 267.316  1.00  0.00     0.034 A 
HETATM    5  C4  UNL     1     173.423 187.880 267.222  1.00  0.00     0.068 A 
HETATM    6  N1  UNL     1     172.893 186.963 266.373  1.00  0.00    -0.241 NA
HETATM    7  C5  UNL     1     173.396 185.706 266.254  1.00  0.00     0.102 A 
HETATM    8  C13 UNL     1     174.524 185.320 267.017  1.00  0.00     0.006 A 
HETATM    9  C27 UNL     1     175.093 186.261 267.892  1.00  0.00     0.025 A 
HETATM   10  C28 UNL     1     174.546 187.546 268.004  1.00  0.00    -0.005 A 
HETATM   11  C29 UNL     1     175.099 188.500 268.873  1.00  0.00     0.032 A 
ENDROOT
BRANCH   8  12
HETATM   12  C14 UNL     1     175.089 183.920 266.966  1.00  0.00     0.311 C 
BRANCH  12  13
HETATM   13  N2  UNL     1     174.345 183.028 267.866  1.00  0.00     0.091 N 
HETATM   14  H12 UNL     1     174.017 182.209 267.300  1.00  0.00     0.316 HD
BRANCH  13  15
HETATM   15  C15 UNL     1     175.209 182.507 268.937  1.00  0.00     0.308 C 
BRANCH  15  16
HETATM   16  C16 UNL     1     175.107 183.362 270.176  1.00  0.00    -0.030 A 
HETATM   17  C17 UNL     1     176.221 184.086 270.626  1.00  0.00     0.009 A 
HETATM   18  C18 UNL     1     176.150 184.827 271.809  1.00  0.00     0.009 A 
HETATM   19  C19 UNL     1     174.957 184.869 272.549  1.00  0.00    -0.030 A 
HETATM   20  C25 UNL     1     173.834 184.167 272.083  1.00  0.00     0.009 A 
HETATM   21  C26 UNL     1     173.908 183.416 270.906  1.00  0.00     0.009 A 
BRANCH  19  22
HETATM   22  C20 UNL     1     174.877 185.657 273.832  1.00  0.00     0.311 C 
BRANCH  22  23
HETATM   23  N3  UNL     1     176.218 185.831 274.427  1.00  0.00     0.092 N 
HETATM   24  C21 UNL     1     176.513 187.230 274.747  1.00  0.00     0.273 C 
HETATM   25  C22 UNL     1     177.527 187.212 275.878  1.00  0.00     0.032 C 
HETATM   26  C23 UNL     1     177.353 185.859 276.547  1.00  0.00     0.032 C 
HETATM   27  C24 UNL     1     176.338 185.106 275.697  1.00  0.00     0.273 C 
ENDBRANCH  22  23
ENDBRANCH  19  22
ENDBRANCH  15  16
ENDBRANCH  13  15
ENDBRANCH  12  13
ENDBRANCH   8  12
BRANCH   7  28
HETATM   28  S1  UNL     1     172.610 184.597 265.077  1.00  0.00    -0.105 SA
BRANCH  28  29
HETATM   29  C6  UNL     1     173.533 185.202 263.626  1.00  0.00     0.119 C 
BRANCH  29  30
HETATM   30  C7  UNL     1     174.648 184.261 263.261  1.00  0.00    -0.049 A 
HETATM   31  C8  UNL     1     174.372 183.014 262.672  1.00  0.00     0.008 A 
HETATM   32  C9  UNL     1     175.419 182.145 262.344  1.00  0.00     0.001 A 
HETATM   33  C10 UNL     1     176.743 182.510 262.608  1.00  0.00     0.000 A 
HETATM   34  C11 UNL     1     177.023 183.747 263.198  1.00  0.00     0.001 A 
HETATM   35  C12 UNL     1     175.982 184.619 263.526  1.00  0.00     0.008 A 
ENDBRANCH  29  30
ENDBRANCH  28  29
ENDBRANCH   7  28
TORSDOF 9
ENDMDL
MODEL 5
REMARK VINA RESULT:      -8.1      9.200     13.454
REMARK  9 active torsions:
REMARK  status: ('A' for Active; 'I' for Inactive)
REMARK    1  A    between atoms: C5_7  and  S1_8 
REMARK    2  A    between atoms: S1_8  and  C6_9 
REMARK    3  A    between atoms: C6_9  and  C7_10 
REMARK    4  A    between atoms: C13_16  and  C14_17 
REMARK    5  A    between atoms: C14_17  and  N2_18 
REMARK    6  A    between atoms: N2_18  and  C15_19 
REMARK    7  A    between atoms: C15_19  and  C16_20 
REMARK    8  A    between atoms: C19_23  and  C20_24 
REMARK    9  A    between atoms: C20_24  and  N3_25 
ROOT
HETATM    1 BR1  UNL     1     177.726 186.278 276.894  1.00  0.00    -0.051 Br
HETATM    2  C1  UNL     1     176.348 185.824 275.651  1.00  0.00     0.011 A 
HETATM    3  C2  UNL     1     175.016 185.769 276.076  1.00  0.00     0.021 A 
HETATM    4  C3  UNL     1     174.002 185.445 275.172  1.00  0.00     0.034 A 
HETATM    5  C4  UNL     1     174.316 185.177 273.835  1.00  0.00     0.068 A 
HETATM    6  N1  UNL     1     173.330 184.873 272.953  1.00  0.00    -0.241 NA
HETATM    7  C5  UNL     1     173.584 184.595 271.646  1.00  0.00     0.102 A 
HETATM    8  C13 UNL     1     174.912 184.634 271.160  1.00  0.00     0.006 A 
HETATM    9  C27 UNL     1     175.943 184.958 272.058  1.00  0.00     0.025 A 
HETATM   10  C28 UNL     1     175.655 185.229 273.401  1.00  0.00    -0.005 A 
HETATM   11  C29 UNL     1     176.671 185.554 274.315  1.00  0.00     0.032 A 
ENDROOT
BRANCH   8  12
HETATM   12  C14 UNL     1     175.257 184.277 269.733  1.00  0.00     0.311 C 
BRANCH  12  13
HETATM   13  N2  UNL     1     175.773 185.451 269.016  1.00  0.00     0.091 N 
HETATM   14  H12 UNL     1     176.267 185.107 268.159  1.00  0.00     0.316 HD
BRANCH  13  15
HETATM   15  C15 UNL     1     174.680 186.331 268.573  1.00  0.00     0.308 C 
BRANCH  15  16
HETATM   16  C16 UNL     1     174.911 187.750 269.028  1.00  0.00    -0.030 A 
HETATM   17  C17 UNL     1     175.166 188.024 270.380  1.00  0.00     0.009 A 
HETATM   18  C18 UNL     1     175.316 189.344 270.817  1.00  0.00     0.009 A 
HETATM   19  C19 UNL     1     175.232 190.407 269.904  1.00  0.00    -0.030 A 
HETATM   20  C25 UNL     1     175.005 190.131 268.545  1.00  0.00     0.009 A 
HETATM   21  C26 UNL     1     174.843 188.812 268.111  1.00  0.00     0.009 A 
BRANCH  19  22
HETATM   22  C20 UNL     1     175.381 191.833 270.371  1.00  0.00     0.311 C 
BRANCH  22  23
HETATM   23  N3  UNL     1     174.394 192.148 271.422  1.00  0.00     0.092 N 
HETATM   24  C21 UNL     1     174.773 193.321 272.216  1.00  0.00     0.273 C 
HETATM   25  C22 UNL     1     173.485 193.915 272.756  1.00  0.00     0.032 C 
HETATM   26  C23 UNL     1     172.396 193.429 271.813  1.00  0.00     0.032 C 
HETATM   27  C24 UNL     1     173.084 192.474 270.847  1.00  0.00     0.273 C 
ENDBRANCH  22  23
ENDBRANCH  19  22
ENDBRANCH  15  16
ENDBRANCH  13  15
ENDBRANCH  12  13
ENDBRANCH   8  12
BRANCH   7  28
HETATM   28  S1  UNL     1     172.183 184.226 270.581  1.00  0.00    -0.105 SA
BRANCH  28  29
HETATM   29  C6  UNL     1     171.051 185.422 271.365  1.00  0.00     0.119 C 
BRANCH  29  30
HETATM   30  C7  UNL     1     171.215 186.794 270.770  1.00  0.00    -0.049 A 
HETATM   31  C8  UNL     1     171.490 187.904 271.590  1.00  0.00     0.008 A 
HETATM   32  C9  UNL     1     171.633 189.176 271.025  1.00  0.00     0.001 A 
HETATM   33  C10 UNL     1     171.496 189.349 269.644  1.00  0.00     0.000 A 
HETATM   34  C11 UNL     1     171.219 188.250 268.825  1.00  0.00     0.001 A 
HETATM   35  C12 UNL     1     171.077 186.978 269.384  1.00  0.00     0.008 A 
ENDBRANCH  29  30
ENDBRANCH  28  29
ENDBRANCH   7  28
TORSDOF 9
ENDMDL
MODEL 6
REMARK VINA RESULT:      -8.0      4.376     11.245
REMARK  9 active torsions:
REMARK  status: ('A' for Active; 'I' for Inactive)
REMARK    1  A    between atoms: C5_7  and  S1_8 
REMARK    2  A    between atoms: S1_8  and  C6_9 
REMARK    3  A    between atoms: C6_9  and  C7_10 
REMARK    4  A    between atoms: C13_16  and  C14_17 
REMARK    5  A    between atoms: C14_17  and  N2_18 
REMARK    6  A    between atoms: N2_18  and  C15_19 
REMARK    7  A    between atoms: C15_19  and  C16_20 
REMARK    8  A    between atoms: C19_23  and  C20_24 
REMARK    9  A    between atoms: C20_24  and  N3_25 
ROOT
HETATM    1 BR1  UNL     1     172.758 185.436 285.265  1.00  0.00    -0.051 Br
HETATM    2  C1  UNL     1     173.502 185.903 283.568  1.00  0.00     0.011 A 
HETATM    3  C2  UNL     1     174.809 186.397 283.493  1.00  0.00     0.021 A 
HETATM    4  C3  UNL     1     175.363 186.734 282.256  1.00  0.00     0.034 A 
HETATM    5  C4  UNL     1     174.613 186.575 281.087  1.00  0.00     0.068 A 
HETATM    6  N1  UNL     1     175.153 186.892 279.882  1.00  0.00    -0.241 NA
HETATM    7  C5  UNL     1     174.462 186.765 278.718  1.00  0.00     0.102 A 
HETATM    8  C13 UNL     1     173.136 186.271 278.734  1.00  0.00     0.006 A 
HETATM    9  C27 UNL     1     172.565 185.928 279.971  1.00  0.00     0.025 A 
HETATM   10  C28 UNL     1     173.296 186.080 281.156  1.00  0.00    -0.005 A 
HETATM   11  C29 UNL     1     172.743 185.744 282.402  1.00  0.00     0.032 A 
ENDROOT
BRANCH   8  12
HETATM   12  C14 UNL     1     172.303 186.165 277.478  1.00  0.00     0.311 C 
BRANCH  12  13
HETATM   13  N2  UNL     1     171.928 187.499 276.990  1.00  0.00     0.091 N 
HETATM   14  H12 UNL     1     172.811 188.049 276.862  1.00  0.00     0.316 HD
BRANCH  13  15
HETATM   15  C15 UNL     1     171.262 187.422 275.680  1.00  0.00     0.308 C 
BRANCH  15  16
HETATM   16  C16 UNL     1     172.207 187.815 274.571  1.00  0.00    -0.030 A 
HETATM   17  C17 UNL     1     173.347 188.582 274.855  1.00  0.00     0.009 A 
HETATM   18  C18 UNL     1     174.189 189.004 273.822  1.00  0.00     0.009 A 
HETATM   19  C19 UNL     1     173.913 188.649 272.492  1.00  0.00    -0.030 A 
HETATM   20  C25 UNL     1     172.787 187.857 272.211  1.00  0.00     0.009 A 
HETATM   21  C26 UNL     1     171.938 187.446 273.243  1.00  0.00     0.009 A 
BRANCH  19  22
HETATM   22  C20 UNL     1     174.811 189.111 271.372  1.00  0.00     0.311 C 
BRANCH  22  23
HETATM   23  N3  UNL     1     174.140 188.960 270.065  1.00  0.00     0.092 N 
HETATM   24  C21 UNL     1     173.867 190.248 269.421  1.00  0.00     0.273 C 
HETATM   25  C22 UNL     1     173.816 189.985 267.927  1.00  0.00     0.032 C 
HETATM   26  C23 UNL     1     174.611 188.706 267.720  1.00  0.00     0.032 C 
HETATM   27  C24 UNL     1     174.979 188.219 269.116  1.00  0.00     0.273 C 
ENDBRANCH  22  23
ENDBRANCH  19  22
ENDBRANCH  15  16
ENDBRANCH  13  15
ENDBRANCH  12  13
ENDBRANCH   8  12
BRANCH   7  28
HETATM   28  S1  UNL     1     175.305 187.201 277.191  1.00  0.00    -0.105 SA
BRANCH  28  29
HETATM   29  C6  UNL     1     175.363 185.501 276.535  1.00  0.00     0.119 C 
BRANCH  29  30
HETATM   30  C7  UNL     1     175.541 185.502 275.041  1.00  0.00    -0.049 A 
HETATM   31  C8  UNL     1     176.673 186.094 274.453  1.00  0.00     0.008 A 
HETATM   32  C9  UNL     1     176.824 186.094 273.061  1.00  0.00     0.001 A 
HETATM   33  C10 UNL     1     175.844 185.513 272.250  1.00  0.00     0.000 A 
HETATM   34  C11 UNL     1     174.714 184.927 272.829  1.00  0.00     0.001 A 
HETATM   35  C12 UNL     1     174.560 184.922 274.218  1.00  0.00     0.008 A 
ENDBRANCH  29  30
ENDBRANCH  28  29
ENDBRANCH   7  28
TORSDOF 9
ENDMDL
MODEL 7
REMARK VINA RESULT:      -8.0      4.575      8.252
REMARK  9 active torsions:
REMARK  status: ('A' for Active; 'I' for Inactive)
REMARK    1  A    between atoms: C5_7  and  S1_8 
REMARK    2  A    between atoms: S1_8  and  C6_9 
REMARK    3  A    between atoms: C6_9  and  C7_10 
REMARK    4  A    between atoms: C13_16  and  C14_17 
REMARK    5  A    between atoms: C14_17  and  N2_18 
REMARK    6  A    between atoms: N2_18  and  C15_19 
REMARK    7  A    between atoms: C15_19  and  C16_20 
REMARK    8  A    between atoms: C19_23  and  C20_24 
REMARK    9  A    between atoms: C20_24  and  N3_25 
ROOT
HETATM    1 BR1  UNL     1     178.714 185.287 277.596  1.00  0.00    -0.051 Br
HETATM    2  C1  UNL     1     177.658 185.835 276.101  1.00  0.00     0.011 A 
HETATM    3  C2  UNL     1     178.283 186.211 274.907  1.00  0.00     0.021 A 
HETATM    4  C3  UNL     1     177.518 186.606 273.807  1.00  0.00     0.034 A 
HETATM    5  C4  UNL     1     176.122 186.623 273.895  1.00  0.00     0.068 A 
HETATM    6  N1  UNL     1     175.377 186.997 272.824  1.00  0.00    -0.241 NA
HETATM    7  C5  UNL     1     174.019 187.041 272.862  1.00  0.00     0.102 A 
HETATM    8  C13 UNL     1     173.333 186.673 274.044  1.00  0.00     0.006 A 
HETATM    9  C27 UNL     1     174.088 186.273 275.159  1.00  0.00     0.025 A 
HETATM   10  C28 UNL     1     175.487 186.248 275.095  1.00  0.00    -0.005 A 
HETATM   11  C29 UNL     1     176.261 185.853 276.198  1.00  0.00     0.032 A 
ENDROOT
BRANCH   8  12
HETATM   12  C14 UNL     1     171.829 186.759 274.160  1.00  0.00     0.311 C 
BRANCH  12  13
HETATM   13  N2  UNL     1     171.444 187.648 275.265  1.00  0.00     0.091 N 
HETATM   14  H12 UNL     1     170.942 188.468 274.850  1.00  0.00     0.316 HD
BRANCH  13  15
HETATM   15  C15 UNL     1     170.513 186.981 276.189  1.00  0.00     0.308 C 
BRANCH  15  16
HETATM   16  C16 UNL     1     171.050 186.998 277.599  1.00  0.00    -0.030 A 
HETATM   17  C17 UNL     1     170.834 188.113 278.422  1.00  0.00     0.009 A 
HETATM   18  C18 UNL     1     171.385 188.161 279.706  1.00  0.00     0.009 A 
HETATM   19  C19 UNL     1     172.144 187.085 280.192  1.00  0.00    -0.030 A 
HETATM   20  C25 UNL     1     172.336 185.956 279.378  1.00  0.00     0.009 A 
HETATM   21  C26 UNL     1     171.796 185.914 278.090  1.00  0.00     0.009 A 
BRANCH  19  22
HETATM   22  C20 UNL     1     172.751 187.135 281.572  1.00  0.00     0.311 C 
BRANCH  22  23
HETATM   23  N3  UNL     1     173.777 186.085 281.732  1.00  0.00     0.092 N 
HETATM   24  C21 UNL     1     175.124 186.637 281.905  1.00  0.00     0.273 C 
HETATM   25  C22 UNL     1     175.921 185.604 282.680  1.00  0.00     0.032 C 
HETATM   26  C23 UNL     1     174.885 184.769 283.414  1.00  0.00     0.032 C 
HETATM   27  C24 UNL     1     173.531 185.275 282.931  1.00  0.00     0.273 C 
ENDBRANCH  22  23
ENDBRANCH  19  22
ENDBRANCH  15  16
ENDBRANCH  13  15
ENDBRANCH  12  13
ENDBRANCH   8  12
BRANCH   7  28
HETATM   28  S1  UNL     1     173.154 187.534 271.365  1.00  0.00    -0.105 SA
BRANCH  28  29
HETATM   29  C6  UNL     1     174.604 188.309 270.576  1.00  0.00     0.119 C 
BRANCH  29  30
HETATM   30  C7  UNL     1     174.658 189.783 270.869  1.00  0.00    -0.049 A 
HETATM   31  C8  UNL     1     173.663 190.397 271.652  1.00  0.00     0.008 A 
HETATM   32  C9  UNL     1     173.722 191.770 271.912  1.00  0.00     0.001 A 
HETATM   33  C10 UNL     1     174.765 192.539 271.388  1.00  0.00     0.000 A 
HETATM   34  C11 UNL     1     175.755 191.936 270.606  1.00  0.00     0.001 A 
HETATM   35  C12 UNL     1     175.702 190.564 270.345  1.00  0.00     0.008 A 
ENDBRANCH  29  30
ENDBRANCH  28  29
ENDBRANCH   7  28
TORSDOF 9
ENDMDL
MODEL 8
REMARK VINA RESULT:      -8.0      4.021     11.725
REMARK  9 active torsions:
REMARK  status: ('A' for Active; 'I' for Inactive)
REMARK    1  A    between atoms: C5_7  and  S1_8 
REMARK    2  A    between atoms: S1_8  and  C6_9 
REMARK    3  A    between atoms: C6_9  and  C7_10 
REMARK    4  A    between atoms: C13_16  and  C14_17 
REMARK    5  A    between atoms: C14_17  and  N2_18 
REMARK    6  A    between atoms: N2_18  and  C15_19 
REMARK    7  A    between atoms: C15_19  and  C16_20 
REMARK    8  A    between atoms: C19_23  and  C20_24 
REMARK    9  A    between atoms: C20_24  and  N3_25 
ROOT
HETATM    1 BR1  UNL     1     168.328 187.234 274.724  1.00  0.00    -0.051 Br
HETATM    2  C1  UNL     1     169.455 187.167 276.265  1.00  0.00     0.011 A 
HETATM    3  C2  UNL     1     168.892 187.243 277.544  1.00  0.00     0.021 A 
HETATM    4  C3  UNL     1     169.708 187.186 278.676  1.00  0.00     0.034 A 
HETATM    5  C4  UNL     1     171.093 187.051 278.534  1.00  0.00     0.068 A 
HETATM    6  N1  UNL     1     171.887 186.985 279.633  1.00  0.00    -0.241 NA
HETATM    7  C5  UNL     1     173.239 186.864 279.548  1.00  0.00     0.102 A 
HETATM    8  C13 UNL     1     173.863 186.785 278.281  1.00  0.00     0.006 A 
HETATM    9  C27 UNL     1     173.055 186.839 277.133  1.00  0.00     0.025 A 
HETATM   10  C28 UNL     1     171.666 186.976 277.249  1.00  0.00    -0.005 A 
HETATM   11  C29 UNL     1     170.841 187.034 276.114  1.00  0.00     0.032 A 
ENDROOT
BRANCH   8  12
HETATM   12  C14 UNL     1     175.364 186.707 278.127  1.00  0.00     0.311 C 
BRANCH  12  13
HETATM   13  N2  UNL     1     175.760 187.003 276.743  1.00  0.00     0.091 N 
HETATM   14  H12 UNL     1     176.400 187.833 276.768  1.00  0.00     0.316 HD
BRANCH  13  15
HETATM   15  C15 UNL     1     176.509 185.884 276.150  1.00  0.00     0.308 C 
BRANCH  15  16
HETATM   16  C16 UNL     1     176.086 185.651 274.721  1.00  0.00    -0.030 A 
HETATM   17  C17 UNL     1     176.926 186.035 273.665  1.00  0.00     0.009 A 
HETATM   18  C18 UNL     1     176.511 185.880 272.339  1.00  0.00     0.009 A 
HETATM   19  C19 UNL     1     175.255 185.323 272.050  1.00  0.00    -0.030 A 
HETATM   20  C25 UNL     1     174.425 184.912 273.107  1.00  0.00     0.009 A 
HETATM   21  C26 UNL     1     174.836 185.078 274.433  1.00  0.00     0.009 A 
BRANCH  19  22
HETATM   22  C20 UNL     1     174.795 185.164 270.623  1.00  0.00     0.311 C 
BRANCH  22  23
HETATM   23  N3  UNL     1     174.733 183.738 270.246  1.00  0.00     0.092 N 
HETATM   24  C21 UNL     1     174.132 183.531 268.925  1.00  0.00     0.273 C 
HETATM   25  C22 UNL     1     174.695 182.227 268.391  1.00  0.00     0.032 C 
HETATM   26  C23 UNL     1     176.002 182.021 269.138  1.00  0.00     0.032 C 
HETATM   27  C24 UNL     1     176.074 183.147 270.161  1.00  0.00     0.273 C 
ENDBRANCH  22  23
ENDBRANCH  19  22
ENDBRANCH  15  16
ENDBRANCH  13  15
ENDBRANCH  12  13
ENDBRANCH   8  12
BRANCH   7  28
HETATM   28  S1  UNL     1     174.169 186.768 281.084  1.00  0.00    -0.105 SA
BRANCH  28  29
HETATM   29  C6  UNL     1     172.756 186.246 282.110  1.00  0.00     0.119 C 
BRANCH  29  30
HETATM   30  C7  UNL     1     173.217 185.720 283.442  1.00  0.00    -0.049 A 
HETATM   31  C8  UNL     1     172.355 185.723 284.553  1.00  0.00     0.008 A 
HETATM   32  C9  UNL     1     172.799 185.237 285.788  1.00  0.00     0.001 A 
HETATM   33  C10 UNL     1     174.104 184.755 285.923  1.00  0.00     0.000 A 
HETATM   34  C11 UNL     1     174.967 184.753 284.823  1.00  0.00     0.001 A 
HETATM   35  C12 UNL     1     174.529 185.235 283.587  1.00  0.00     0.008 A 
ENDBRANCH  29  30
ENDBRANCH  28  29
ENDBRANCH   7  28
TORSDOF 9
ENDMDL
MODEL 9
REMARK VINA RESULT:      -7.9     10.141     15.894
REMARK  9 active torsions:
REMARK  status: ('A' for Active; 'I' for Inactive)
REMARK    1  A    between atoms: C5_7  and  S1_8 
REMARK    2  A    between atoms: S1_8  and  C6_9 
REMARK    3  A    between atoms: C6_9  and  C7_10 
REMARK    4  A    between atoms: C13_16  and  C14_17 
REMARK    5  A    between atoms: C14_17  and  N2_18 
REMARK    6  A    between atoms: N2_18  and  C15_19 
REMARK    7  A    between atoms: C15_19  and  C16_20 
REMARK    8  A    between atoms: C19_23  and  C20_24 
REMARK    9  A    between atoms: C20_24  and  N3_25 
ROOT
HETATM    1 BR1  UNL     1     171.606 185.761 264.588  1.00  0.00    -0.051 Br
HETATM    2  C1  UNL     1     172.210 186.319 266.313  1.00  0.00     0.011 A 
HETATM    3  C2  UNL     1     172.625 187.640 266.512  1.00  0.00     0.021 A 
HETATM    4  C3  UNL     1     173.061 188.058 267.771  1.00  0.00     0.034 A 
HETATM    5  C4  UNL     1     173.080 187.155 268.840  1.00  0.00     0.068 A 
HETATM    6  N1  UNL     1     173.493 187.562 270.067  1.00  0.00    -0.241 NA
HETATM    7  C5  UNL     1     173.541 186.722 271.135  1.00  0.00     0.102 A 
HETATM    8  C13 UNL     1     173.135 185.373 270.992  1.00  0.00     0.006 A 
HETATM    9  C27 UNL     1     172.694 184.938 269.731  1.00  0.00     0.025 A 
HETATM   10  C28 UNL     1     172.666 185.823 268.645  1.00  0.00    -0.005 A 
HETATM   11  C29 UNL     1     172.230 185.408 267.377  1.00  0.00     0.032 A 
ENDROOT
BRANCH   8  12
HETATM   12  C14 UNL     1     173.222 184.382 272.129  1.00  0.00     0.311 C 
BRANCH  12  13
HETATM   13  N2  UNL     1     173.858 183.135 271.682  1.00  0.00     0.091 N 
HETATM   14  H12 UNL     1     173.519 182.938 270.711  1.00  0.00     0.316 HD
BRANCH  13  15
HETATM   15  C15 UNL     1     175.322 183.273 271.620  1.00  0.00     0.308 C 
BRANCH  15  16
HETATM   16  C16 UNL     1     175.797 183.335 270.189  1.00  0.00    -0.030 A 
HETATM   17  C17 UNL     1     176.502 184.456 269.728  1.00  0.00     0.009 A 
HETATM   18  C18 UNL     1     176.888 184.546 268.388  1.00  0.00     0.009 A 
HETATM   19  C19 UNL     1     176.588 183.506 267.493  1.00  0.00    -0.030 A 
HETATM   20  C25 UNL     1     175.906 182.370 267.961  1.00  0.00     0.009 A 
HETATM   21  C26 UNL     1     175.511 182.286 269.299  1.00  0.00     0.009 A 
BRANCH  19  22
HETATM   22  C20 UNL     1     176.990 183.601 266.042  1.00  0.00     0.311 C 
BRANCH  22  23
HETATM   23  N3  UNL     1     175.801 183.605 265.167  1.00  0.00     0.092 N 
HETATM   24  C21 UNL     1     175.675 184.846 264.396  1.00  0.00     0.273 C 
HETATM   25  C22 UNL     1     174.893 184.500 263.142  1.00  0.00     0.032 C 
HETATM   26  C23 UNL     1     175.088 183.005 262.950  1.00  0.00     0.032 C 
HETATM   27  C24 UNL     1     175.867 182.531 264.169  1.00  0.00     0.273 C 
ENDBRANCH  22  23
ENDBRANCH  19  22
ENDBRANCH  15  16
ENDBRANCH  13  15
ENDBRANCH  12  13
ENDBRANCH   8  12
BRANCH   7  28
HETATM   28  S1  UNL     1     174.089 187.396 272.709  1.00  0.00    -0.105 SA
BRANCH  28  29
HETATM   29  C6  UNL     1     175.808 186.807 272.559  1.00  0.00     0.119 C 
BRANCH  29  30
HETATM   30  C7  UNL     1     176.305 186.247 273.864  1.00  0.00    -0.049 A 
HETATM   31  C8  UNL     1     175.469 185.451 274.669  1.00  0.00     0.008 A 
HETATM   32  C9  UNL     1     175.942 184.942 275.884  1.00  0.00     0.001 A 
HETATM   33  C10 UNL     1     177.243 185.228 276.306  1.00  0.00     0.000 A 
HETATM   34  C11 UNL     1     178.077 186.022 275.512  1.00  0.00     0.001 A 
HETATM   35  C12 UNL     1     177.612 186.532 274.298  1.00  0.00     0.008 A 
ENDBRANCH  29  30
ENDBRANCH  28  29
ENDBRANCH   7  28
TORSDOF 9
ENDMDL
