MODEL 1
REMARK VINA RESULT:      -8.2      0.000      0.000
REMARK  10 active torsions:
REMARK  status: ('A' for Active; 'I' for Inactive)
REMARK    1  A    between atoms: C_1  and  C_20 
REMARK    2  A    between atoms: C_5  and  S_26 
REMARK    3  A    between atoms: C_6  and  C_8 
REMARK    4  A    between atoms: C_8  and  N_9 
REMARK    5  A    between atoms: N_9  and  C_10 
REMARK    6  A    between atoms: C_10  and  C_11 
REMARK    7  A    between atoms: C_11  and  C_12 
REMARK    8  A    between atoms: N_15  and  C_18 
REMARK    9  A    between atoms: S_26  and  C_33 
REMARK   10  A    between atoms: C_27  and  C_33 
ROOT
HETATM    1  C           1     171.666 189.402 281.030  0.00  0.00    -0.010 A 
HETATM    2  C           1     170.880 189.025 279.953  0.00  0.00     0.101 A 
HETATM    3  N           1     171.112 187.927 279.201  0.00  0.00    -0.359 N 
ATOM      4  HN          1     170.512 187.681 278.413  1.00  0.00     0.166 HD
HETATM    5  C           1     172.178 187.172 279.545  0.00  0.00     0.077 A 
HETATM    6  C           1     173.021 187.466 280.605  0.00  0.00     0.004 A 
HETATM    7  C           1     172.757 188.604 281.360  0.00  0.00     0.025 A 
ENDROOT
BRANCH   6   8
HETATM    8  C           1     174.185 186.583 280.928  0.00  0.00     0.307 C 
BRANCH   8   9
HETATM    9  N           1     175.039 187.243 281.879  0.00  0.00     0.087 N 
HETATM   10  H           1     175.756 187.771 281.381  0.00  0.00     0.316 HD
BRANCH   9  11
HETATM   11  C           1     175.664 186.228 282.683  0.00  0.00     0.270 C 
BRANCH  11  12
HETATM   12  C           1     174.790 184.982 282.700  0.00  0.00     0.034 C 
BRANCH  12  13
HETATM   13  C           1     174.274 184.740 284.113  0.00  0.00    -0.010 C 
HETATM   14  C           1     175.231 185.382 285.112  0.00  0.00     0.035 C 
HETATM   15  C           1     174.662 185.338 286.529  0.00  0.00     0.272 C 
HETATM   16  N           1     173.338 185.958 286.595  0.00  0.00     0.088 N 
HETATM   17  C           1     172.393 185.298 285.694  0.00  0.00     0.272 C 
HETATM   18  C           1     172.878 185.340 284.246  0.00  0.00     0.035 C 
BRANCH  16  19
HETATM   19  C           1     172.872 185.758 287.941  0.00  0.00     0.268 C 
HETATM   20  C           1     174.031 185.937 288.912  0.00  0.00     0.037 C 
ENDBRANCH  16  19
ENDBRANCH  12  13
ENDBRANCH  11  12
ENDBRANCH   9  11
ENDBRANCH   8   9
ENDBRANCH   6   8
BRANCH   5  21
HETATM   21  S           1     172.525 185.686 278.563  0.00  0.00    -0.107 SA
BRANCH  21  22
HETATM   22  C           1     172.994 186.621 277.080  0.00  0.00     0.122 C 
BRANCH  22  23
HETATM   23  C           1     174.369 186.218 276.649  0.00  0.00    -0.049 A 
HETATM   24  C           1     175.487 186.770 277.273  0.00  0.00     0.008 A 
HETATM   25  C           1     176.768 186.394 276.871  0.00  0.00     0.001 A 
HETATM   26  C           1     176.933 185.466 275.843  0.00  0.00     0.000 A 
HETATM   27  C           1     175.815 184.913 275.218  0.00  0.00     0.001 A 
HETATM   28  C           1     174.533 185.290 275.621  0.00  0.00     0.008 A 
ENDBRANCH  22  23
ENDBRANCH  21  22
ENDBRANCH   5  21
BRANCH   1  29
HETATM   29  C           1     171.384 190.503 281.734  0.00  0.00    -0.025 A 
HETATM   30  C           1     172.103 191.677 281.511  0.00  0.00     0.012 A 
HETATM   31  C           1     171.808 192.826 282.245  0.00  0.00     0.001 A 
HETATM   32  C           1     170.794 192.800 283.203  0.00  0.00     0.000 A 
HETATM   33  C           1     170.075 191.626 283.426  0.00  0.00     0.001 A 
HETATM   34  C           1     170.370 190.478 282.692  0.00  0.00     0.012 A 
ENDBRANCH   1  29
TORSDOF 10
ENDMDL
MODEL 2
REMARK VINA RESULT:      -8.1      1.881      7.523
REMARK  10 active torsions:
REMARK  status: ('A' for Active; 'I' for Inactive)
REMARK    1  A    between atoms: C_1  and  C_20 
REMARK    2  A    between atoms: C_5  and  S_26 
REMARK    3  A    between atoms: C_6  and  C_8 
REMARK    4  A    between atoms: C_8  and  N_9 
REMARK    5  A    between atoms: N_9  and  C_10 
REMARK    6  A    between atoms: C_10  and  C_11 
REMARK    7  A    between atoms: C_11  and  C_12 
REMARK    8  A    between atoms: N_15  and  C_18 
REMARK    9  A    between atoms: S_26  and  C_33 
REMARK   10  A    between atoms: C_27  and  C_33 
ROOT
HETATM    1  C           1     172.700 189.424 282.425  0.00  0.00    -0.010 A 
HETATM    2  C           1     173.639 189.257 283.431  0.00  0.00     0.101 A 
HETATM    3  N           1     174.562 188.271 283.442  0.00  0.00    -0.359 N 
ATOM      4  HN          1     175.239 188.178 284.200  1.00  0.00     0.166 HD
HETATM    5  C           1     174.544 187.414 282.396  0.00  0.00     0.077 A 
HETATM    6  C           1     173.646 187.500 281.345  0.00  0.00     0.004 A 
HETATM    7  C           1     172.707 188.526 281.363  0.00  0.00     0.025 A 
ENDROOT
BRANCH   6   8
HETATM    8  C           1     173.685 186.513 280.220  0.00  0.00     0.307 C 
BRANCH   8   9
HETATM    9  N           1     172.367 185.978 280.005  0.00  0.00     0.087 N 
HETATM   10  H           1     172.160 185.287 280.726  0.00  0.00     0.316 HD
BRANCH   9  11
HETATM   11  C           1     172.359 185.342 278.715  0.00  0.00     0.270 C 
BRANCH  11  12
HETATM   12  C           1     172.700 186.365 277.641  0.00  0.00     0.034 C 
BRANCH  12  13
HETATM   13  C           1     173.944 185.915 276.886  0.00  0.00    -0.010 C 
HETATM   14  C           1     173.585 185.685 275.421  0.00  0.00     0.035 C 
HETATM   15  C           1     174.833 185.421 274.581  0.00  0.00     0.272 C 
HETATM   16  N           1     175.812 186.500 274.720  0.00  0.00     0.088 N 
HETATM   17  C           1     176.219 186.676 276.115  0.00  0.00     0.272 C 
HETATM   18  C           1     175.022 186.986 277.011  0.00  0.00     0.035 C 
BRANCH  16  19
HETATM   19  C           1     176.970 186.085 273.975  0.00  0.00     0.268 C 
HETATM   20  C           1     178.225 186.360 274.793  0.00  0.00     0.037 C 
ENDBRANCH  16  19
ENDBRANCH  12  13
ENDBRANCH  11  12
ENDBRANCH   9  11
ENDBRANCH   8   9
ENDBRANCH   6   8
BRANCH   5  21
HETATM   21  S           1     175.769 186.075 282.369  0.00  0.00    -0.107 SA
BRANCH  21  22
HETATM   22  C           1     174.538 184.773 282.660  0.00  0.00     0.122 C 
BRANCH  22  23
HETATM   23  C           1     174.071 184.834 284.081  0.00  0.00    -0.049 A 
HETATM   24  C           1     172.739 185.133 284.366  0.00  0.00     0.008 A 
HETATM   25  C           1     172.305 185.191 285.690  0.00  0.00     0.001 A 
HETATM   26  C           1     173.203 184.951 286.730  0.00  0.00     0.000 A 
HETATM   27  C           1     174.535 184.651 286.445  0.00  0.00     0.001 A 
HETATM   28  C           1     174.969 184.594 285.121  0.00  0.00     0.008 A 
ENDBRANCH  22  23
ENDBRANCH  21  22
ENDBRANCH   5  21
BRANCH   1  29
HETATM   29  C           1     171.811 190.422 282.475  0.00  0.00    -0.025 A 
HETATM   30  C           1     172.094 191.639 281.855  0.00  0.00     0.012 A 
HETATM   31  C           1     171.167 192.680 281.906  0.00  0.00     0.001 A 
HETATM   32  C           1     169.957 192.503 282.578  0.00  0.00     0.000 A 
HETATM   33  C           1     169.675 191.286 283.198  0.00  0.00     0.001 A 
HETATM   34  C           1     170.602 190.245 283.147  0.00  0.00     0.012 A 
ENDBRANCH   1  29
TORSDOF 10
ENDMDL
MODEL 3
REMARK VINA RESULT:      -8.0      8.334     12.144
REMARK  10 active torsions:
REMARK  status: ('A' for Active; 'I' for Inactive)
REMARK    1  A    between atoms: C_1  and  C_20 
REMARK    2  A    between atoms: C_5  and  S_26 
REMARK    3  A    between atoms: C_6  and  C_8 
REMARK    4  A    between atoms: C_8  and  N_9 
REMARK    5  A    between atoms: N_9  and  C_10 
REMARK    6  A    between atoms: C_10  and  C_11 
REMARK    7  A    between atoms: C_11  and  C_12 
REMARK    8  A    between atoms: N_15  and  C_18 
REMARK    9  A    between atoms: S_26  and  C_33 
REMARK   10  A    between atoms: C_27  and  C_33 
ROOT
HETATM    1  C           1     175.318 185.397 272.588  0.00  0.00    -0.010 A 
HETATM    2  C           1     176.103 185.494 271.450  0.00  0.00     0.101 A 
HETATM    3  N           1     175.624 185.372 270.193  0.00  0.00    -0.359 N 
ATOM      4  HN          1     176.232 185.449 269.378  1.00  0.00     0.166 HD
HETATM    5  C           1     174.297 185.144 270.071  0.00  0.00     0.077 A 
HETATM    6  C           1     173.433 185.032 271.148  0.00  0.00     0.004 A 
HETATM    7  C           1     173.957 185.162 272.430  0.00  0.00     0.025 A 
ENDROOT
BRANCH   6   8
HETATM    8  C           1     171.973 184.778 270.937  0.00  0.00     0.307 C 
BRANCH   8   9
HETATM    9  N           1     171.208 185.835 271.543  0.00  0.00     0.087 N 
HETATM   10  H           1     170.251 185.516 271.696  0.00  0.00     0.316 HD
BRANCH   9  11
HETATM   11  C           1     171.203 186.948 270.634  0.00  0.00     0.270 C 
BRANCH  11  12
HETATM   12  C           1     171.048 188.244 271.418  0.00  0.00     0.034 C 
BRANCH  12  13
HETATM   13  C           1     172.124 189.232 270.987  0.00  0.00    -0.010 C 
HETATM   14  C           1     171.573 190.651 271.094  0.00  0.00     0.035 C 
HETATM   15  C           1     172.670 191.688 270.860  0.00  0.00     0.272 C 
HETATM   16  N           1     173.799 191.492 271.771  0.00  0.00     0.088 N 
HETATM   17  C           1     174.381 190.157 271.619  0.00  0.00     0.272 C 
HETATM   18  C           1     173.348 189.064 271.881  0.00  0.00     0.035 C 
BRANCH  16  19
HETATM   19  C           1     174.796 192.451 271.381  0.00  0.00     0.268 C 
HETATM   20  C           1     175.861 191.763 270.538  0.00  0.00     0.037 C 
ENDBRANCH  16  19
ENDBRANCH  12  13
ENDBRANCH  11  12
ENDBRANCH   9  11
ENDBRANCH   8   9
ENDBRANCH   6   8
BRANCH   5  21
HETATM   21  S           1     173.610 184.975 268.400  0.00  0.00    -0.107 SA
BRANCH  21  22
HETATM   22  C           1     174.735 186.202 267.676  0.00  0.00     0.122 C 
BRANCH  22  23
HETATM   23  C           1     174.041 187.526 267.589  0.00  0.00    -0.049 A 
HETATM   24  C           1     172.736 187.599 267.103  0.00  0.00     0.008 A 
HETATM   25  C           1     172.090 188.832 267.022  0.00  0.00     0.001 A 
HETATM   26  C           1     172.749 189.993 267.424  0.00  0.00     0.000 A 
HETATM   27  C           1     174.055 189.921 267.910  0.00  0.00     0.001 A 
HETATM   28  C           1     174.701 188.687 267.992  0.00  0.00     0.008 A 
ENDBRANCH  22  23
ENDBRANCH  21  22
ENDBRANCH   5  21
BRANCH   1  29
HETATM   29  C           1     175.856 185.527 273.806  0.00  0.00    -0.025 A 
HETATM   30  C           1     177.132 186.071 273.950  0.00  0.00     0.012 A 
HETATM   31  C           1     177.693 186.206 275.220  0.00  0.00     0.001 A 
HETATM   32  C           1     176.977 185.796 276.345  0.00  0.00     0.000 A 
HETATM   33  C           1     175.701 185.252 276.201  0.00  0.00     0.001 A 
HETATM   34  C           1     175.140 185.117 274.931  0.00  0.00     0.012 A 
ENDBRANCH   1  29
TORSDOF 10
ENDMDL
MODEL 4
REMARK VINA RESULT:      -7.9      0.866      1.709
REMARK  10 active torsions:
REMARK  status: ('A' for Active; 'I' for Inactive)
REMARK    1  A    between atoms: C_1  and  C_20 
REMARK    2  A    between atoms: C_5  and  S_26 
REMARK    3  A    between atoms: C_6  and  C_8 
REMARK    4  A    between atoms: C_8  and  N_9 
REMARK    5  A    between atoms: N_9  and  C_10 
REMARK    6  A    between atoms: C_10  and  C_11 
REMARK    7  A    between atoms: C_11  and  C_12 
REMARK    8  A    between atoms: N_15  and  C_18 
REMARK    9  A    between atoms: S_26  and  C_33 
REMARK   10  A    between atoms: C_27  and  C_33 
ROOT
HETATM    1  C           1     171.549 189.336 280.981  0.00  0.00    -0.010 A 
HETATM    2  C           1     170.865 189.102 279.799  0.00  0.00     0.101 A 
HETATM    3  N           1     171.061 188.017 279.018  0.00  0.00    -0.359 N 
ATOM      4  HN          1     170.539 187.878 278.153  1.00  0.00     0.166 HD
HETATM    5  C           1     171.985 187.126 279.442  0.00  0.00     0.077 A 
HETATM    6  C           1     172.718 187.272 280.609  0.00  0.00     0.004 A 
HETATM    7  C           1     172.493 188.401 281.391  0.00  0.00     0.025 A 
ENDROOT
BRANCH   6   8
HETATM    8  C           1     173.726 186.244 281.016  0.00  0.00     0.307 C 
BRANCH   8   9
HETATM    9  N           1     173.091 185.247 281.836  0.00  0.00     0.087 N 
HETATM   10  H           1     172.093 185.449 281.904  0.00  0.00     0.316 HD
BRANCH   9  11
HETATM   11  C           1     173.683 185.314 283.144  0.00  0.00     0.270 C 
BRANCH  11  12
HETATM   12  C           1     172.647 184.932 284.192  0.00  0.00     0.034 C 
BRANCH  12  13
HETATM   13  C           1     172.965 185.637 285.504  0.00  0.00    -0.010 C 
HETATM   14  C           1     171.892 185.290 286.532  0.00  0.00     0.035 C 
HETATM   15  C           1     172.265 185.812 287.918  0.00  0.00     0.272 C 
HETATM   16  N           1     173.578 185.321 288.341  0.00  0.00     0.088 N 
HETATM   17  C           1     174.625 185.716 287.398  0.00  0.00     0.272 C 
HETATM   18  C           1     174.339 185.190 285.993  0.00  0.00     0.035 C 
BRANCH  16  19
HETATM   19  C           1     173.856 185.962 289.598  0.00  0.00     0.268 C 
HETATM   20  C           1     172.957 187.181 289.756  0.00  0.00     0.037 C 
ENDBRANCH  16  19
ENDBRANCH  12  13
ENDBRANCH  11  12
ENDBRANCH   9  11
ENDBRANCH   8   9
ENDBRANCH   6   8
BRANCH   5  21
HETATM   21  S           1     172.280 185.653 278.425  0.00  0.00    -0.107 SA
BRANCH  21  22
HETATM   22  C           1     172.840 186.604 276.984  0.00  0.00     0.122 C 
BRANCH  22  23
HETATM   23  C           1     174.242 186.211 276.640  0.00  0.00    -0.049 A 
HETATM   24  C           1     175.316 186.786 277.319  0.00  0.00     0.008 A 
HETATM   25  C           1     176.622 186.419 276.998  0.00  0.00     0.001 A 
HETATM   26  C           1     176.856 185.478 275.996  0.00  0.00     0.000 A 
HETATM   27  C           1     175.783 184.902 275.315  0.00  0.00     0.001 A 
HETATM   28  C           1     174.476 185.270 275.637  0.00  0.00     0.008 A 
ENDBRANCH  22  23
ENDBRANCH  21  22
ENDBRANCH   5  21
BRANCH   1  29
HETATM   29  C           1     171.308 190.432 281.708  0.00  0.00    -0.025 A 
HETATM   30  C           1     170.323 190.411 282.696  0.00  0.00     0.012 A 
HETATM   31  C           1     170.071 191.554 283.455  0.00  0.00     0.001 A 
HETATM   32  C           1     170.804 192.718 283.225  0.00  0.00     0.000 A 
HETATM   33  C           1     171.789 192.739 282.237  0.00  0.00     0.001 A 
HETATM   34  C           1     172.040 191.596 281.479  0.00  0.00     0.012 A 
ENDBRANCH   1  29
TORSDOF 10
ENDMDL
MODEL 5
REMARK VINA RESULT:      -7.8      8.775     14.921
REMARK  10 active torsions:
REMARK  status: ('A' for Active; 'I' for Inactive)
REMARK    1  A    between atoms: C_1  and  C_20 
REMARK    2  A    between atoms: C_5  and  S_26 
REMARK    3  A    between atoms: C_6  and  C_8 
REMARK    4  A    between atoms: C_8  and  N_9 
REMARK    5  A    between atoms: N_9  and  C_10 
REMARK    6  A    between atoms: C_10  and  C_11 
REMARK    7  A    between atoms: C_11  and  C_12 
REMARK    8  A    between atoms: N_15  and  C_18 
REMARK    9  A    between atoms: S_26  and  C_33 
REMARK   10  A    between atoms: C_27  and  C_33 
ROOT
HETATM    1  C           1     175.755 185.776 272.477  0.00  0.00    -0.010 A 
HETATM    2  C           1     174.846 186.752 272.100  0.00  0.00     0.101 A 
HETATM    3  N           1     174.334 186.861 270.855  0.00  0.00    -0.359 N 
ATOM      4  HN          1     173.666 187.593 270.612  1.00  0.00     0.166 HD
HETATM    5  C           1     174.750 185.950 269.947  0.00  0.00     0.077 A 
HETATM    6  C           1     175.654 184.939 270.229  0.00  0.00     0.004 A 
HETATM    7  C           1     176.165 184.853 271.520  0.00  0.00     0.025 A 
ENDROOT
BRANCH   6   8
HETATM    8  C           1     176.071 183.965 269.172  0.00  0.00     0.307 C 
BRANCH   8   9
HETATM    9  N           1     177.452 184.185 268.833  0.00  0.00     0.087 N 
HETATM   10  H           1     177.862 184.846 269.493  0.00  0.00     0.316 HD
BRANCH   9  11
HETATM   11  C           1     177.493 184.744 267.509  0.00  0.00     0.270 C 
BRANCH  11  12
HETATM   12  C           1     177.173 183.661 266.489  0.00  0.00     0.034 C 
BRANCH  12  13
HETATM   13  C           1     176.068 184.146 265.559  0.00  0.00    -0.010 C 
HETATM   14  C           1     176.588 184.152 264.125  0.00  0.00     0.035 C 
HETATM   15  C           1     175.465 184.444 263.132  0.00  0.00     0.272 C 
HETATM   16  N           1     174.353 183.504 263.285  0.00  0.00     0.088 N 
HETATM   17  C           1     173.800 183.548 264.640  0.00  0.00     0.272 C 
HETATM   18  C           1     174.861 183.223 265.688  0.00  0.00     0.035 C 
BRANCH  16  19
HETATM   19  C           1     173.329 183.947 262.379  0.00  0.00     0.268 C 
HETATM   20  C           1     173.460 185.448 262.159  0.00  0.00     0.037 C 
ENDBRANCH  16  19
ENDBRANCH  12  13
ENDBRANCH  11  12
ENDBRANCH   9  11
ENDBRANCH   8   9
ENDBRANCH   6   8
BRANCH   5  21
HETATM   21  S           1     174.086 186.058 268.262  0.00  0.00    -0.107 SA
BRANCH  21  22
HETATM   22  C           1     174.610 187.781 268.030  0.00  0.00     0.122 C 
BRANCH  22  23
HETATM   23  C           1     173.431 188.612 267.630  0.00  0.00    -0.049 A 
HETATM   24  C           1     172.395 188.044 266.889  0.00  0.00     0.008 A 
HETATM   25  C           1     171.297 188.818 266.516  0.00  0.00     0.001 A 
HETATM   26  C           1     171.235 190.162 266.884  0.00  0.00     0.000 A 
HETATM   27  C           1     172.271 190.731 267.626  0.00  0.00     0.001 A 
HETATM   28  C           1     173.369 189.956 267.998  0.00  0.00     0.008 A 
ENDBRANCH  22  23
ENDBRANCH  21  22
ENDBRANCH   5  21
BRANCH   1  29
HETATM   29  C           1     176.226 185.723 273.727  0.00  0.00    -0.025 A 
HETATM   30  C           1     177.450 186.316 274.037  0.00  0.00     0.012 A 
HETATM   31  C           1     177.941 186.261 275.342  0.00  0.00     0.001 A 
HETATM   32  C           1     177.208 185.613 276.336  0.00  0.00     0.000 A 
HETATM   33  C           1     175.984 185.021 276.026  0.00  0.00     0.001 A 
HETATM   34  C           1     175.493 185.075 274.722  0.00  0.00     0.012 A 
ENDBRANCH   1  29
TORSDOF 10
ENDMDL
MODEL 6
REMARK VINA RESULT:      -7.8      6.276     10.578
REMARK  10 active torsions:
REMARK  status: ('A' for Active; 'I' for Inactive)
REMARK    1  A    between atoms: C_1  and  C_20 
REMARK    2  A    between atoms: C_5  and  S_26 
REMARK    3  A    between atoms: C_6  and  C_8 
REMARK    4  A    between atoms: C_8  and  N_9 
REMARK    5  A    between atoms: N_9  and  C_10 
REMARK    6  A    between atoms: C_10  and  C_11 
REMARK    7  A    between atoms: C_11  and  C_12 
REMARK    8  A    between atoms: N_15  and  C_18 
REMARK    9  A    between atoms: S_26  and  C_33 
REMARK   10  A    between atoms: C_27  and  C_33 
ROOT
HETATM    1  C           1     175.514 185.512 272.462  0.00  0.00    -0.010 A 
HETATM    2  C           1     176.095 184.788 271.433  0.00  0.00     0.101 A 
HETATM    3  N           1     175.559 184.673 270.198  0.00  0.00    -0.359 N 
ATOM      4  HN          1     176.015 184.131 269.464  1.00  0.00     0.166 HD
HETATM    5  C           1     174.388 185.314 269.985  0.00  0.00     0.077 A 
HETATM    6  C           1     173.732 186.061 270.950  0.00  0.00     0.004 A 
HETATM    7  C           1     174.309 186.160 272.212  0.00  0.00     0.025 A 
ENDROOT
BRANCH   6   8
HETATM    8  C           1     172.436 186.744 270.643  0.00  0.00     0.307 C 
BRANCH   8   9
HETATM    9  N           1     172.567 188.156 270.887  0.00  0.00     0.087 N 
HETATM   10  H           1     173.520 188.361 271.186  0.00  0.00     0.316 HD
BRANCH   9  11
HETATM   11  C           1     171.649 188.505 271.937  0.00  0.00     0.270 C 
BRANCH  11  12
HETATM   12  C           1     172.361 189.371 272.968  0.00  0.00     0.034 C 
BRANCH  12  13
HETATM   13  C           1     172.099 188.821 274.364  0.00  0.00    -0.010 C 
HETATM   14  C           1     170.955 187.813 274.298  0.00  0.00     0.035 C 
HETATM   15  C           1     170.780 187.090 275.632  0.00  0.00     0.272 C 
HETATM   16  N           1     172.023 186.448 276.062  0.00  0.00     0.088 N 
HETATM   17  C           1     173.106 187.422 276.201  0.00  0.00     0.272 C 
HETATM   18  C           1     173.368 188.158 274.889  0.00  0.00     0.035 C 
BRANCH  16  19
HETATM   19  C           1     171.757 185.901 277.365  0.00  0.00     0.268 C 
HETATM   20  C           1     173.070 185.704 278.111  0.00  0.00     0.037 C 
ENDBRANCH  16  19
ENDBRANCH  12  13
ENDBRANCH  11  12
ENDBRANCH   9  11
ENDBRANCH   8   9
ENDBRANCH   6   8
BRANCH   5  21
HETATM   21  S           1     173.632 185.188 268.340  0.00  0.00    -0.107 SA
BRANCH  21  22
HETATM   22  C           1     174.748 186.411 267.595  0.00  0.00     0.122 C 
BRANCH  22  23
HETATM   23  C           1     174.074 187.746 267.559  0.00  0.00    -0.049 A 
HETATM   24  C           1     172.790 187.866 267.028  0.00  0.00     0.008 A 
HETATM   25  C           1     172.162 189.111 266.994  0.00  0.00     0.001 A 
HETATM   26  C           1     172.818 190.237 267.491  0.00  0.00     0.000 A 
HETATM   27  C           1     174.102 190.118 268.024  0.00  0.00     0.001 A 
HETATM   28  C           1     174.730 188.872 268.057  0.00  0.00     0.008 A 
ENDBRANCH  22  23
ENDBRANCH  21  22
ENDBRANCH   5  21
BRANCH   1  29
HETATM   29  C           1     176.097 185.585 273.663  0.00  0.00    -0.025 A 
HETATM   30  C           1     177.302 186.272 273.813  0.00  0.00     0.012 A 
HETATM   31  C           1     177.909 186.349 275.067  0.00  0.00     0.001 A 
HETATM   32  C           1     177.312 185.738 276.169  0.00  0.00     0.000 A 
HETATM   33  C           1     176.107 185.052 276.019  0.00  0.00     0.001 A 
HETATM   34  C           1     175.499 184.975 274.766  0.00  0.00     0.012 A 
ENDBRANCH   1  29
TORSDOF 10
ENDMDL
MODEL 7
REMARK VINA RESULT:      -7.7      9.156     15.297
REMARK  10 active torsions:
REMARK  status: ('A' for Active; 'I' for Inactive)
REMARK    1  A    between atoms: C_1  and  C_20 
REMARK    2  A    between atoms: C_5  and  S_26 
REMARK    3  A    between atoms: C_6  and  C_8 
REMARK    4  A    between atoms: C_8  and  N_9 
REMARK    5  A    between atoms: N_9  and  C_10 
REMARK    6  A    between atoms: C_10  and  C_11 
REMARK    7  A    between atoms: C_11  and  C_12 
REMARK    8  A    between atoms: N_15  and  C_18 
REMARK    9  A    between atoms: S_26  and  C_33 
REMARK   10  A    between atoms: C_27  and  C_33 
ROOT
HETATM    1  C           1     175.856 185.980 272.427  0.00  0.00    -0.010 A 
HETATM    2  C           1     175.179 187.117 272.015  0.00  0.00     0.101 A 
HETATM    3  N           1     174.753 187.322 270.749  0.00  0.00    -0.359 N 
ATOM      4  HN          1     174.258 188.173 270.482  1.00  0.00     0.166 HD
HETATM    5  C           1     175.016 186.342 269.856  0.00  0.00     0.077 A 
HETATM    6  C           1     175.686 185.171 270.172  0.00  0.00     0.004 A 
HETATM    7  C           1     176.112 184.990 271.484  0.00  0.00     0.025 A 
ENDROOT
BRANCH   6   8
HETATM    8  C           1     175.943 184.128 269.130  0.00  0.00     0.307 C 
BRANCH   8   9
HETATM    9  N           1     177.357 184.031 268.887  0.00  0.00     0.087 N 
HETATM   10  H           1     177.856 184.639 269.537  0.00  0.00     0.316 HD
BRANCH   9  11
HETATM   11  C           1     177.601 184.469 267.539  0.00  0.00     0.270 C 
BRANCH  11  12
HETATM   12  C           1     176.638 183.766 266.593  0.00  0.00     0.034 C 
BRANCH  12  13
HETATM   13  C           1     177.357 183.421 265.296  0.00  0.00    -0.010 C 
HETATM   14  C           1     177.463 181.904 265.170  0.00  0.00     0.035 C 
HETATM   15  C           1     178.002 181.500 263.800  0.00  0.00     0.272 C 
HETATM   16  N           1     177.193 182.063 262.717  0.00  0.00     0.088 N 
HETATM   17  C           1     177.150 183.524 262.787  0.00  0.00     0.272 C 
HETATM   18  C           1     176.580 184.003 264.120  0.00  0.00     0.035 C 
BRANCH  16  19
HETATM   19  C           1     177.859 181.703 261.495  0.00  0.00     0.268 C 
HETATM   20  C           1     179.210 182.401 261.428  0.00  0.00     0.037 C 
ENDBRANCH  16  19
ENDBRANCH  12  13
ENDBRANCH  11  12
ENDBRANCH   9  11
ENDBRANCH   8   9
ENDBRANCH   6   8
BRANCH   5  21
HETATM   21  S           1     174.460 186.575 268.145  0.00  0.00    -0.107 SA
BRANCH  21  22
HETATM   22  C           1     174.575 188.385 268.220  0.00  0.00     0.122 C 
BRANCH  22  23
HETATM   23  C           1     173.310 188.988 267.697  0.00  0.00    -0.049 A 
HETATM   24  C           1     173.020 190.329 267.948  0.00  0.00     0.008 A 
HETATM   25  C           1     171.840 190.891 267.461  0.00  0.00     0.001 A 
HETATM   26  C           1     170.949 190.112 266.723  0.00  0.00     0.000 A 
HETATM   27  C           1     171.238 188.771 266.472  0.00  0.00     0.001 A 
HETATM   28  C           1     172.418 188.209 266.959  0.00  0.00     0.008 A 
ENDBRANCH  22  23
ENDBRANCH  21  22
ENDBRANCH   5  21
BRANCH   1  29
HETATM   29  C           1     176.252 185.839 273.696  0.00  0.00    -0.025 A 
HETATM   30  C           1     177.491 186.337 274.099  0.00  0.00     0.012 A 
HETATM   31  C           1     177.904 186.190 275.423  0.00  0.00     0.001 A 
HETATM   32  C           1     177.079 185.544 276.343  0.00  0.00     0.000 A 
HETATM   33  C           1     175.840 185.045 275.940  0.00  0.00     0.001 A 
HETATM   34  C           1     175.427 185.192 274.616  0.00  0.00     0.012 A 
ENDBRANCH   1  29
TORSDOF 10
ENDMDL
MODEL 8
REMARK VINA RESULT:      -7.6      8.331     12.372
REMARK  10 active torsions:
REMARK  status: ('A' for Active; 'I' for Inactive)
REMARK    1  A    between atoms: C_1  and  C_20 
REMARK    2  A    between atoms: C_5  and  S_26 
REMARK    3  A    between atoms: C_6  and  C_8 
REMARK    4  A    between atoms: C_8  and  N_9 
REMARK    5  A    between atoms: N_9  and  C_10 
REMARK    6  A    between atoms: C_10  and  C_11 
REMARK    7  A    between atoms: C_11  and  C_12 
REMARK    8  A    between atoms: N_15  and  C_18 
REMARK    9  A    between atoms: S_26  and  C_33 
REMARK   10  A    between atoms: C_27  and  C_33 
ROOT
HETATM    1  C           1     174.747 185.522 273.316  0.00  0.00    -0.010 A 
HETATM    2  C           1     173.558 186.195 273.543  0.00  0.00     0.101 A 
HETATM    3  N           1     172.498 186.152 272.706  0.00  0.00    -0.359 N 
ATOM      4  HN          1     171.637 186.663 272.905  1.00  0.00     0.166 HD
HETATM    5  C           1     172.637 185.399 271.592  0.00  0.00     0.077 A 
HETATM    6  C           1     173.785 184.690 271.280  0.00  0.00     0.004 A 
HETATM    7  C           1     174.859 184.755 272.161  0.00  0.00     0.025 A 
ENDROOT
BRANCH   6   8
HETATM    8  C           1     173.867 183.876 270.027  0.00  0.00     0.307 C 
BRANCH   8   9
HETATM    9  N           1     174.909 184.397 269.183  0.00  0.00     0.087 N 
HETATM   10  H           1     175.664 184.764 269.764  0.00  0.00     0.316 HD
BRANCH   9  11
HETATM   11  C           1     174.347 185.462 268.399  0.00  0.00     0.270 C 
BRANCH  11  12
HETATM   12  C           1     175.336 186.617 268.325  0.00  0.00     0.034 C 
BRANCH  12  13
HETATM   13  C           1     174.733 187.849 268.987  0.00  0.00    -0.010 C 
HETATM   14  C           1     175.174 187.901 270.446  0.00  0.00     0.035 C 
HETATM   15  C           1     174.757 189.216 271.102  0.00  0.00     0.272 C 
HETATM   16  N           1     175.261 190.371 270.358  0.00  0.00     0.088 N 
HETATM   17  C           1     174.778 190.368 268.976  0.00  0.00     0.272 C 
HETATM   18  C           1     175.195 189.096 268.241  0.00  0.00     0.035 C 
BRANCH  16  19
HETATM   19  C           1     174.716 191.532 271.009  0.00  0.00     0.268 C 
HETATM   20  C           1     173.278 191.741 270.555  0.00  0.00     0.037 C 
ENDBRANCH  16  19
ENDBRANCH  12  13
ENDBRANCH  11  12
ENDBRANCH   9  11
ENDBRANCH   8   9
ENDBRANCH   6   8
BRANCH   5  21
HETATM   21  S           1     171.237 185.311 270.441  0.00  0.00    -0.107 SA
BRANCH  21  22
HETATM   22  C           1     170.896 187.093 270.520  0.00  0.00     0.122 C 
BRANCH  22  23
HETATM   23  C           1     171.140 187.708 269.178  0.00  0.00    -0.049 A 
HETATM   24  C           1     171.279 186.895 268.052  0.00  0.00     0.008 A 
HETATM   25  C           1     171.506 187.468 266.801  0.00  0.00     0.001 A 
HETATM   26  C           1     171.595 188.855 266.675  0.00  0.00     0.000 A 
HETATM   27  C           1     171.456 189.668 267.800  0.00  0.00     0.001 A 
HETATM   28  C           1     171.229 189.094 269.051  0.00  0.00     0.008 A 
ENDBRANCH  22  23
ENDBRANCH  21  22
ENDBRANCH   5  21
BRANCH   1  29
HETATM   29  C           1     175.760 185.607 274.185  0.00  0.00    -0.025 A 
HETATM   30  C           1     176.929 186.281 273.829  0.00  0.00     0.012 A 
HETATM   31  C           1     177.986 186.370 274.735  0.00  0.00     0.001 A 
HETATM   32  C           1     177.874 185.784 275.996  0.00  0.00     0.000 A 
HETATM   33  C           1     176.706 185.110 276.351  0.00  0.00     0.001 A 
HETATM   34  C           1     175.649 185.021 275.445  0.00  0.00     0.012 A 
ENDBRANCH   1  29
TORSDOF 10
ENDMDL
MODEL 9
REMARK VINA RESULT:      -7.6      7.499     11.732
REMARK  10 active torsions:
REMARK  status: ('A' for Active; 'I' for Inactive)
REMARK    1  A    between atoms: C_1  and  C_20 
REMARK    2  A    between atoms: C_5  and  S_26 
REMARK    3  A    between atoms: C_6  and  C_8 
REMARK    4  A    between atoms: C_8  and  N_9 
REMARK    5  A    between atoms: N_9  and  C_10 
REMARK    6  A    between atoms: C_10  and  C_11 
REMARK    7  A    between atoms: C_11  and  C_12 
REMARK    8  A    between atoms: N_15  and  C_18 
REMARK    9  A    between atoms: S_26  and  C_33 
REMARK   10  A    between atoms: C_27  and  C_33 
ROOT
HETATM    1  C           1     175.851 186.230 272.532  0.00  0.00    -0.010 A 
HETATM    2  C           1     175.472 185.221 271.661  0.00  0.00     0.101 A 
HETATM    3  N           1     175.032 185.440 270.403  0.00  0.00    -0.359 N 
ATOM      4  HN          1     174.761 184.671 269.789  1.00  0.00     0.166 HD
HETATM    5  C           1     174.970 186.728 269.999  0.00  0.00     0.077 A 
HETATM    6  C           1     175.326 187.803 270.796  0.00  0.00     0.004 A 
HETATM    7  C           1     175.775 187.546 272.087  0.00  0.00     0.025 A 
ENDROOT
BRANCH   6   8
HETATM    8  C           1     175.231 189.206 270.282  0.00  0.00     0.307 C 
BRANCH   8   9
HETATM    9  N           1     176.190 190.034 270.963  0.00  0.00     0.087 N 
HETATM   10  H           1     176.112 189.884 271.969  0.00  0.00     0.316 HD
BRANCH   9  11
HETATM   11  C           1     175.880 191.404 270.657  0.00  0.00     0.270 C 
BRANCH  11  12
HETATM   12  C           1     174.391 191.537 270.367  0.00  0.00     0.034 C 
BRANCH  12  13
HETATM   13  C           1     173.698 192.202 271.549  0.00  0.00    -0.010 C 
HETATM   14  C           1     173.093 191.126 272.445  0.00  0.00     0.035 C 
HETATM   15  C           1     172.555 191.725 273.743  0.00  0.00     0.272 C 
HETATM   16  N           1     173.587 192.482 274.453  0.00  0.00     0.088 N 
HETATM   17  C           1     174.119 193.566 273.625  0.00  0.00     0.272 C 
HETATM   18  C           1     174.715 193.034 272.323  0.00  0.00     0.035 C 
BRANCH  16  19
HETATM   19  C           1     172.934 193.078 275.587  0.00  0.00     0.268 C 
HETATM   20  C           1     171.659 192.309 275.900  0.00  0.00     0.037 C 
ENDBRANCH  16  19
ENDBRANCH  12  13
ENDBRANCH  11  12
ENDBRANCH   9  11
ENDBRANCH   8   9
ENDBRANCH   6   8
BRANCH   5  21
HETATM   21  S           1     174.385 187.068 268.315  0.00  0.00    -0.107 SA
BRANCH  21  22
HETATM   22  C           1     172.643 187.192 268.808  0.00  0.00     0.122 C 
BRANCH  22  23
HETATM   23  C           1     172.174 188.602 268.634  0.00  0.00    -0.049 A 
HETATM   24  C           1     172.586 189.344 267.527  0.00  0.00     0.008 A 
HETATM   25  C           1     172.149 190.658 267.364  0.00  0.00     0.001 A 
HETATM   26  C           1     171.300 191.232 268.310  0.00  0.00     0.000 A 
HETATM   27  C           1     170.886 190.492 269.418  0.00  0.00     0.001 A 
HETATM   28  C           1     171.324 189.177 269.579  0.00  0.00     0.008 A 
ENDBRANCH  22  23
ENDBRANCH  21  22
ENDBRANCH   5  21
BRANCH   1  29
HETATM   29  C           1     176.278 185.946 273.767  0.00  0.00    -0.025 A 
HETATM   30  C           1     175.457 185.234 274.642  0.00  0.00     0.012 A 
HETATM   31  C           1     175.902 184.937 275.930  0.00  0.00     0.001 A 
HETATM   32  C           1     177.167 185.354 276.344  0.00  0.00     0.000 A 
HETATM   33  C           1     177.987 186.067 275.469  0.00  0.00     0.001 A 
HETATM   34  C           1     177.543 186.364 274.181  0.00  0.00     0.012 A 
ENDBRANCH   1  29
TORSDOF 10
ENDMDL
