MODEL 1
REMARK VINA RESULT:      -9.1      0.000      0.000
REMARK  9 active torsions:
REMARK  status: ('A' for Active; 'I' for Inactive)
REMARK    1  A    between atoms: C8_8  and  C9_9 
REMARK    2  A    between atoms: C9_9  and  N1_10 
REMARK    3  A    between atoms: N1_10  and  C10_11 
REMARK    4  A    between atoms: C10_11  and  C11_12 
REMARK    5  A    between atoms: C14_15  and  C15_16 
REMARK    6  A    between atoms: C15_16  and  N2_17 
REMARK    7  A    between atoms: C22_24  and  S1_25 
REMARK    8  A    between atoms: S1_25  and  C23_26 
REMARK    9  A    between atoms: C23_26  and  C24_27 
ROOT
HETATM    1  C1  UNL     1     171.573 189.371 280.758  1.00  0.00     0.068 A 
HETATM    2  C2  UNL     1     170.415 190.150 280.674  1.00  0.00     0.032 A 
HETATM    3  C3  UNL     1     170.314 191.330 281.417  1.00  0.00     0.002 A 
HETATM    4  C4  UNL     1     171.359 191.723 282.268  1.00  0.00     0.001 A 
HETATM    5  C5  UNL     1     172.530 190.963 282.334  1.00  0.00     0.014 A 
HETATM    6  C6  UNL     1     172.645 189.784 281.578  1.00  0.00    -0.007 A 
HETATM    7  C7  UNL     1     173.800 188.991 281.641  1.00  0.00     0.025 A 
HETATM    8  C8  UNL     1     173.869 187.786 280.921  1.00  0.00     0.006 A 
HETATM    9  C22 UNL     1     172.768 187.414 280.113  1.00  0.00     0.102 A 
HETATM   10  N3  UNL     1     171.659 188.202 280.071  1.00  0.00    -0.241 NA
ENDROOT
BRANCH   8  11
HETATM   11  C9  UNL     1     175.092 186.913 281.077  1.00  0.00     0.311 C 
BRANCH  11  12
HETATM   12  N1  UNL     1     175.548 186.905 282.474  1.00  0.00     0.091 N 
HETATM   13  H8  UNL     1     174.907 187.531 283.018  1.00  0.00     0.316 HD
BRANCH  12  14
HETATM   14  C10 UNL     1     175.450 185.551 283.051  1.00  0.00     0.308 C 
BRANCH  14  15
HETATM   15  C11 UNL     1     174.735 185.604 284.376  1.00  0.00    -0.030 A 
HETATM   16  C12 UNL     1     175.005 184.639 285.355  1.00  0.00     0.009 A 
HETATM   17  C13 UNL     1     174.309 184.650 286.567  1.00  0.00     0.009 A 
HETATM   18  C14 UNL     1     173.353 185.647 286.830  1.00  0.00    -0.030 A 
HETATM   19  C20 UNL     1     173.148 186.666 285.882  1.00  0.00     0.009 A 
HETATM   20  C21 UNL     1     173.818 186.631 284.656  1.00  0.00     0.009 A 
BRANCH  18  21
HETATM   21  C15 UNL     1     172.606 185.637 288.152  1.00  0.00     0.311 C 
BRANCH  21  22
HETATM   22  N2  UNL     1     173.287 186.373 289.252  1.00  0.00     0.092 N 
HETATM   23  C16 UNL     1     172.493 187.475 289.819  1.00  0.00     0.273 C 
HETATM   24  C17 UNL     1     172.073 187.085 291.231  1.00  0.00     0.032 C 
HETATM   25  C18 UNL     1     172.713 185.736 291.502  1.00  0.00     0.032 C 
HETATM   26  C19 UNL     1     173.713 185.530 290.379  1.00  0.00     0.273 C 
ENDBRANCH  21  22
ENDBRANCH  18  21
ENDBRANCH  14  15
ENDBRANCH  12  14
ENDBRANCH  11  12
ENDBRANCH   8  11
BRANCH   9  27
HETATM   27  S1  UNL     1     172.774 185.895 279.147  1.00  0.00    -0.105 SA
BRANCH  27  28
HETATM   28  C23 UNL     1     173.032 186.679 277.509  1.00  0.00     0.119 C 
BRANCH  28  29
HETATM   29  C24 UNL     1     174.334 186.277 276.869  1.00  0.00    -0.049 A 
HETATM   30  C25 UNL     1     174.349 185.354 275.804  1.00  0.00     0.008 A 
HETATM   31  C26 UNL     1     175.564 184.948 275.240  1.00  0.00     0.001 A 
HETATM   32  C27 UNL     1     176.766 185.465 275.721  1.00  0.00     0.000 A 
HETATM   33  C28 UNL     1     176.762 186.372 276.788  1.00  0.00     0.001 A 
HETATM   34  C29 UNL     1     175.547 186.781 277.359  1.00  0.00     0.008 A 
ENDBRANCH  28  29
ENDBRANCH  27  28
ENDBRANCH   9  27
TORSDOF 9
ENDMDL
MODEL 2
REMARK VINA RESULT:      -8.8      3.804      9.608
REMARK  9 active torsions:
REMARK  status: ('A' for Active; 'I' for Inactive)
REMARK    1  A    between atoms: C8_8  and  C9_9 
REMARK    2  A    between atoms: C9_9  and  N1_10 
REMARK    3  A    between atoms: N1_10  and  C10_11 
REMARK    4  A    between atoms: C10_11  and  C11_12 
REMARK    5  A    between atoms: C14_15  and  C15_16 
REMARK    6  A    between atoms: C15_16  and  N2_17 
REMARK    7  A    between atoms: C22_24  and  S1_25 
REMARK    8  A    between atoms: S1_25  and  C23_26 
REMARK    9  A    between atoms: C23_26  and  C24_27 
ROOT
HETATM    1  C1  UNL     1     168.623 189.579 288.133  1.00  0.00     0.068 A 
HETATM    2  C2  UNL     1     168.723 190.957 287.920  1.00  0.00     0.032 A 
HETATM    3  C3  UNL     1     168.473 191.486 286.650  1.00  0.00     0.002 A 
HETATM    4  C4  UNL     1     168.149 190.637 285.581  1.00  0.00     0.001 A 
HETATM    5  C5  UNL     1     168.021 189.262 285.794  1.00  0.00     0.014 A 
HETATM    6  C6  UNL     1     168.254 188.724 287.071  1.00  0.00    -0.007 A 
HETATM    7  C7  UNL     1     168.153 187.346 287.309  1.00  0.00     0.025 A 
HETATM    8  C8  UNL     1     168.448 186.825 288.580  1.00  0.00     0.006 A 
HETATM    9  C22 UNL     1     168.815 187.722 289.612  1.00  0.00     0.102 A 
HETATM   10  N3  UNL     1     168.906 189.055 289.354  1.00  0.00    -0.241 NA
ENDROOT
BRANCH   8  11
HETATM   11  C9  UNL     1     168.413 185.328 288.781  1.00  0.00     0.311 C 
BRANCH  11  12
HETATM   12  N1  UNL     1     169.309 184.657 287.830  1.00  0.00     0.091 N 
HETATM   13  H8  UNL     1     169.097 185.037 286.876  1.00  0.00     0.316 HD
BRANCH  12  14
HETATM   14  C10 UNL     1     170.721 184.962 288.132  1.00  0.00     0.308 C 
BRANCH  14  15
HETATM   15  C11 UNL     1     171.390 185.561 286.923  1.00  0.00    -0.030 A 
HETATM   16  C12 UNL     1     171.501 186.952 286.803  1.00  0.00     0.009 A 
HETATM   17  C13 UNL     1     172.075 187.518 285.661  1.00  0.00     0.009 A 
HETATM   18  C14 UNL     1     172.574 186.698 284.634  1.00  0.00    -0.030 A 
HETATM   19  C20 UNL     1     172.542 185.301 284.797  1.00  0.00     0.009 A 
HETATM   20  C21 UNL     1     171.934 184.738 285.922  1.00  0.00     0.009 A 
BRANCH  18  21
HETATM   21  C15 UNL     1     173.189 187.334 283.400  1.00  0.00     0.311 C 
BRANCH  21  22
HETATM   22  N2  UNL     1     173.597 186.366 282.345  1.00  0.00     0.092 N 
HETATM   23  C16 UNL     1     172.698 186.334 281.180  1.00  0.00     0.273 C 
HETATM   24  C17 UNL     1     173.436 186.932 279.989  1.00  0.00     0.032 C 
HETATM   25  C18 UNL     1     174.835 187.253 280.480  1.00  0.00     0.032 C 
HETATM   26  C19 UNL     1     174.958 186.565 281.828  1.00  0.00     0.273 C 
ENDBRANCH  21  22
ENDBRANCH  18  21
ENDBRANCH  14  15
ENDBRANCH  12  14
ENDBRANCH  11  12
ENDBRANCH   8  11
BRANCH   9  27
HETATM   27  S1  UNL     1     169.198 187.146 291.274  1.00  0.00    -0.105 SA
BRANCH  27  28
HETATM   28  C23 UNL     1     170.848 187.934 291.405  1.00  0.00     0.119 C 
BRANCH  28  29
HETATM   29  C24 UNL     1     171.969 187.008 291.014  1.00  0.00    -0.049 A 
HETATM   30  C25 UNL     1     172.218 185.838 291.759  1.00  0.00     0.008 A 
HETATM   31  C26 UNL     1     173.288 185.001 291.422  1.00  0.00     0.001 A 
HETATM   32  C27 UNL     1     174.106 185.315 290.337  1.00  0.00     0.000 A 
HETATM   33  C28 UNL     1     173.875 186.482 289.599  1.00  0.00     0.001 A 
HETATM   34  C29 UNL     1     172.804 187.326 289.935  1.00  0.00     0.008 A 
ENDBRANCH  28  29
ENDBRANCH  27  28
ENDBRANCH   9  27
TORSDOF 9
ENDMDL
MODEL 3
REMARK VINA RESULT:      -8.8      2.548      8.535
REMARK  9 active torsions:
REMARK  status: ('A' for Active; 'I' for Inactive)
REMARK    1  A    between atoms: C8_8  and  C9_9 
REMARK    2  A    between atoms: C9_9  and  N1_10 
REMARK    3  A    between atoms: N1_10  and  C10_11 
REMARK    4  A    between atoms: C10_11  and  C11_12 
REMARK    5  A    between atoms: C14_15  and  C15_16 
REMARK    6  A    between atoms: C15_16  and  N2_17 
REMARK    7  A    between atoms: C22_24  and  S1_25 
REMARK    8  A    between atoms: S1_25  and  C23_26 
REMARK    9  A    between atoms: C23_26  and  C24_27 
ROOT
HETATM    1  C1  UNL     1     171.417 186.842 289.950  1.00  0.00     0.068 A 
HETATM    2  C2  UNL     1     170.451 187.115 290.922  1.00  0.00     0.032 A 
HETATM    3  C3  UNL     1     170.722 186.850 292.268  1.00  0.00     0.002 A 
HETATM    4  C4  UNL     1     171.950 186.286 292.645  1.00  0.00     0.001 A 
HETATM    5  C5  UNL     1     172.931 186.037 291.681  1.00  0.00     0.014 A 
HETATM    6  C6  UNL     1     172.672 186.315 290.328  1.00  0.00    -0.007 A 
HETATM    7  C7  UNL     1     173.629 186.056 289.337  1.00  0.00     0.025 A 
HETATM    8  C8  UNL     1     173.326 186.287 287.985  1.00  0.00     0.006 A 
HETATM    9  C22 UNL     1     172.054 186.815 287.655  1.00  0.00     0.102 A 
HETATM   10  N3  UNL     1     171.144 187.057 288.637  1.00  0.00    -0.241 NA
ENDROOT
BRANCH   8  11
HETATM   11  C9  UNL     1     174.347 185.917 286.935  1.00  0.00     0.311 C 
BRANCH  11  12
HETATM   12  N1  UNL     1     173.992 184.645 286.293  1.00  0.00     0.091 N 
HETATM   13  H8  UNL     1     173.067 184.780 285.817  1.00  0.00     0.316 HD
BRANCH  12  14
HETATM   14  C10 UNL     1     174.981 184.283 285.259  1.00  0.00     0.308 C 
BRANCH  14  15
HETATM   15  C11 UNL     1     174.614 184.924 283.946  1.00  0.00    -0.030 A 
HETATM   16  C12 UNL     1     173.270 185.004 283.558  1.00  0.00     0.009 A 
HETATM   17  C13 UNL     1     172.925 185.550 282.319  1.00  0.00     0.009 A 
HETATM   18  C14 UNL     1     173.918 186.053 281.461  1.00  0.00    -0.030 A 
HETATM   19  C20 UNL     1     175.258 186.052 281.890  1.00  0.00     0.009 A 
HETATM   20  C21 UNL     1     175.605 185.471 283.113  1.00  0.00     0.009 A 
BRANCH  18  21
HETATM   21  C15 UNL     1     173.521 186.637 280.117  1.00  0.00     0.311 C 
BRANCH  21  22
HETATM   22  N2  UNL     1     172.193 186.187 279.617  1.00  0.00     0.092 N 
HETATM   23  C16 UNL     1     171.286 187.287 279.250  1.00  0.00     0.273 C 
HETATM   24  C17 UNL     1     171.119 187.285 277.735  1.00  0.00     0.032 C 
HETATM   25  C18 UNL     1     171.909 186.092 277.227  1.00  0.00     0.032 C 
HETATM   26  C19 UNL     1     172.251 185.279 278.463  1.00  0.00     0.273 C 
ENDBRANCH  21  22
ENDBRANCH  18  21
ENDBRANCH  14  15
ENDBRANCH  12  14
ENDBRANCH  11  12
ENDBRANCH   8  11
BRANCH   9  27
HETATM   27  S1  UNL     1     171.584 187.156 285.951  1.00  0.00    -0.105 SA
BRANCH  27  28
HETATM   28  C23 UNL     1     173.015 188.227 285.539  1.00  0.00     0.119 C 
BRANCH  28  29
HETATM   29  C24 UNL     1     172.949 188.775 284.138  1.00  0.00    -0.049 A 
HETATM   30  C25 UNL     1     174.130 189.119 283.452  1.00  0.00     0.008 A 
HETATM   31  C26 UNL     1     174.065 189.670 282.167  1.00  0.00     0.001 A 
HETATM   32  C27 UNL     1     172.828 189.869 281.554  1.00  0.00     0.000 A 
HETATM   33  C28 UNL     1     171.648 189.543 282.233  1.00  0.00     0.001 A 
HETATM   34  C29 UNL     1     171.708 188.992 283.523  1.00  0.00     0.008 A 
ENDBRANCH  28  29
ENDBRANCH  27  28
ENDBRANCH   9  27
TORSDOF 9
ENDMDL
MODEL 4
REMARK VINA RESULT:      -8.3      4.284      8.062
REMARK  9 active torsions:
REMARK  status: ('A' for Active; 'I' for Inactive)
REMARK    1  A    between atoms: C8_8  and  C9_9 
REMARK    2  A    between atoms: C9_9  and  N1_10 
REMARK    3  A    between atoms: N1_10  and  C10_11 
REMARK    4  A    between atoms: C10_11  and  C11_12 
REMARK    5  A    between atoms: C14_15  and  C15_16 
REMARK    6  A    between atoms: C15_16  and  N2_17 
REMARK    7  A    between atoms: C22_24  and  S1_25 
REMARK    8  A    between atoms: S1_25  and  C23_26 
REMARK    9  A    between atoms: C23_26  and  C24_27 
ROOT
HETATM    1  C1  UNL     1     176.036 186.509 274.101  1.00  0.00     0.068 A 
HETATM    2  C2  UNL     1     177.432 186.428 274.088  1.00  0.00     0.032 A 
HETATM    3  C3  UNL     1     178.118 186.017 275.234  1.00  0.00     0.002 A 
HETATM    4  C4  UNL     1     177.414 185.711 276.409  1.00  0.00     0.001 A 
HETATM    5  C5  UNL     1     176.018 185.763 276.421  1.00  0.00     0.014 A 
HETATM    6  C6  UNL     1     175.320 186.160 275.267  1.00  0.00    -0.007 A 
HETATM    7  C7  UNL     1     173.920 186.241 275.256  1.00  0.00     0.025 A 
HETATM    8  C8  UNL     1     173.248 186.696 274.110  1.00  0.00     0.006 A 
HETATM    9  C22 UNL     1     174.010 187.035 272.966  1.00  0.00     0.102 A 
HETATM   10  N3  UNL     1     175.368 186.947 273.004  1.00  0.00    -0.241 NA
ENDROOT
BRANCH   8  11
HETATM   11  C9  UNL     1     171.746 186.853 274.159  1.00  0.00     0.311 C 
BRANCH  11  12
HETATM   12  N1  UNL     1     171.350 187.683 275.305  1.00  0.00     0.091 N 
HETATM   13  H8  UNL     1     170.799 188.493 274.931  1.00  0.00     0.316 HD
BRANCH  12  14
HETATM   14  C10 UNL     1     170.473 186.930 276.222  1.00  0.00     0.308 C 
BRANCH  14  15
HETATM   15  C11 UNL     1     171.111 186.832 277.583  1.00  0.00    -0.030 A 
HETATM   16  C12 UNL     1     171.768 185.655 277.964  1.00  0.00     0.009 A 
HETATM   17  C13 UNL     1     172.318 185.537 279.244  1.00  0.00     0.009 A 
HETATM   18  C14 UNL     1     172.245 186.608 280.152  1.00  0.00    -0.030 A 
HETATM   19  C20 UNL     1     171.663 187.819 279.736  1.00  0.00     0.009 A 
HETATM   20  C21 UNL     1     171.081 187.922 278.470  1.00  0.00     0.009 A 
BRANCH  18  21
HETATM   21  C15 UNL     1     172.845 186.455 281.539  1.00  0.00     0.311 C 
BRANCH  21  22
HETATM   22  N2  UNL     1     174.138 185.718 281.574  1.00  0.00     0.092 N 
HETATM   23  C16 UNL     1     175.311 186.573 281.815  1.00  0.00     0.273 C 
HETATM   24  C17 UNL     1     175.853 186.262 283.205  1.00  0.00     0.032 C 
HETATM   25  C18 UNL     1     174.994 185.135 283.748  1.00  0.00     0.032 C 
HETATM   26  C19 UNL     1     174.193 184.630 282.561  1.00  0.00     0.273 C 
ENDBRANCH  21  22
ENDBRANCH  18  21
ENDBRANCH  14  15
ENDBRANCH  12  14
ENDBRANCH  11  12
ENDBRANCH   8  11
BRANCH   9  27
HETATM   27  S1  UNL     1     173.233 187.614 271.449  1.00  0.00    -0.105 SA
BRANCH  27  28
HETATM   28  C23 UNL     1     174.720 188.414 270.734  1.00  0.00     0.119 C 
BRANCH  28  29
HETATM   29  C24 UNL     1     174.770 189.895 270.998  1.00  0.00    -0.049 A 
HETATM   30  C25 UNL     1     173.768 190.515 271.772  1.00  0.00     0.008 A 
HETATM   31  C26 UNL     1     173.791 191.898 271.980  1.00  0.00     0.001 A 
HETATM   32  C27 UNL     1     174.815 192.670 271.433  1.00  0.00     0.000 A 
HETATM   33  C28 UNL     1     175.808 192.066 270.652  1.00  0.00     0.001 A 
HETATM   34  C29 UNL     1     175.788 190.679 270.438  1.00  0.00     0.008 A 
ENDBRANCH  28  29
ENDBRANCH  27  28
ENDBRANCH   9  27
TORSDOF 9
ENDMDL
MODEL 5
REMARK VINA RESULT:      -8.2      4.338      8.000
REMARK  9 active torsions:
REMARK  status: ('A' for Active; 'I' for Inactive)
REMARK    1  A    between atoms: C8_8  and  C9_9 
REMARK    2  A    between atoms: C9_9  and  N1_10 
REMARK    3  A    between atoms: N1_10  and  C10_11 
REMARK    4  A    between atoms: C10_11  and  C11_12 
REMARK    5  A    between atoms: C14_15  and  C15_16 
REMARK    6  A    between atoms: C15_16  and  N2_17 
REMARK    7  A    between atoms: C22_24  and  S1_25 
REMARK    8  A    between atoms: S1_25  and  C23_26 
REMARK    9  A    between atoms: C23_26  and  C24_27 
ROOT
HETATM    1  C1  UNL     1     174.901 189.673 271.345  1.00  0.00     0.068 A 
HETATM    2  C2  UNL     1     175.749 190.467 270.567  1.00  0.00     0.032 A 
HETATM    3  C3  UNL     1     175.641 191.860 270.618  1.00  0.00     0.002 A 
HETATM    4  C4  UNL     1     174.666 192.465 271.426  1.00  0.00     0.001 A 
HETATM    5  C5  UNL     1     173.834 191.678 272.226  1.00  0.00     0.014 A 
HETATM    6  C6  UNL     1     173.947 190.277 272.193  1.00  0.00    -0.007 A 
HETATM    7  C7  UNL     1     173.112 189.462 272.969  1.00  0.00     0.025 A 
HETATM    8  C8  UNL     1     173.204 188.064 272.876  1.00  0.00     0.006 A 
HETATM    9  C22 UNL     1     174.175 187.504 272.011  1.00  0.00     0.102 A 
HETATM   10  N3  UNL     1     174.973 188.319 271.268  1.00  0.00    -0.241 NA
ENDROOT
BRANCH   8  11
HETATM   11  C9  UNL     1     172.232 187.214 273.661  1.00  0.00     0.311 C 
BRANCH  11  12
HETATM   12  N1  UNL     1     171.794 187.916 274.874  1.00  0.00     0.091 N 
HETATM   13  H8  UNL     1     171.317 188.800 274.571  1.00  0.00     0.316 HD
BRANCH  12  14
HETATM   14  C10 UNL     1     170.810 187.109 275.622  1.00  0.00     0.308 C 
BRANCH  14  15
HETATM   15  C11 UNL     1     171.330 186.811 277.003  1.00  0.00    -0.030 A 
HETATM   16  C12 UNL     1     170.900 187.580 278.093  1.00  0.00     0.009 A 
HETATM   17  C13 UNL     1     171.416 187.344 279.370  1.00  0.00     0.009 A 
HETATM   18  C14 UNL     1     172.348 186.313 279.582  1.00  0.00    -0.030 A 
HETATM   19  C20 UNL     1     172.710 185.485 278.504  1.00  0.00     0.009 A 
HETATM   20  C21 UNL     1     172.221 185.747 277.221  1.00  0.00     0.009 A 
BRANCH  18  21
HETATM   21  C15 UNL     1     172.899 186.077 280.977  1.00  0.00     0.311 C 
BRANCH  21  22
HETATM   22  N2  UNL     1     174.144 186.834 281.285  1.00  0.00     0.092 N 
HETATM   23  C16 UNL     1     173.907 188.172 281.851  1.00  0.00     0.273 C 
HETATM   24  C17 UNL     1     174.342 188.158 283.311  1.00  0.00     0.032 C 
HETATM   25  C18 UNL     1     174.913 186.775 283.566  1.00  0.00     0.032 C 
HETATM   26  C19 UNL     1     175.069 186.143 282.195  1.00  0.00     0.273 C 
ENDBRANCH  21  22
ENDBRANCH  18  21
ENDBRANCH  14  15
ENDBRANCH  12  14
ENDBRANCH  11  12
ENDBRANCH   8  11
BRANCH   9  27
HETATM   27  S1  UNL     1     174.375 185.724 271.836  1.00  0.00    -0.105 SA
BRANCH  27  28
HETATM   28  C23 UNL     1     176.159 185.661 272.254  1.00  0.00     0.119 C 
BRANCH  28  29
HETATM   29  C24 UNL     1     176.411 185.667 273.739  1.00  0.00    -0.049 A 
HETATM   30  C25 UNL     1     175.444 185.157 274.628  1.00  0.00     0.008 A 
HETATM   31  C26 UNL     1     175.661 185.205 276.009  1.00  0.00     0.001 A 
HETATM   32  C27 UNL     1     176.843 185.746 276.513  1.00  0.00     0.000 A 
HETATM   33  C28 UNL     1     177.804 186.268 275.639  1.00  0.00     0.001 A 
HETATM   34  C29 UNL     1     177.590 186.225 274.252  1.00  0.00     0.008 A 
ENDBRANCH  28  29
ENDBRANCH  27  28
ENDBRANCH   9  27
TORSDOF 9
ENDMDL
MODEL 6
REMARK VINA RESULT:      -8.2      2.679      8.897
REMARK  9 active torsions:
REMARK  status: ('A' for Active; 'I' for Inactive)
REMARK    1  A    between atoms: C8_8  and  C9_9 
REMARK    2  A    between atoms: C9_9  and  N1_10 
REMARK    3  A    between atoms: N1_10  and  C10_11 
REMARK    4  A    between atoms: C10_11  and  C11_12 
REMARK    5  A    between atoms: C14_15  and  C15_16 
REMARK    6  A    between atoms: C15_16  and  N2_17 
REMARK    7  A    between atoms: C22_24  and  S1_25 
REMARK    8  A    between atoms: S1_25  and  C23_26 
REMARK    9  A    between atoms: C23_26  and  C24_27 
ROOT
HETATM    1  C1  UNL     1     170.551 186.017 288.742  1.00  0.00     0.068 A 
HETATM    2  C2  UNL     1     169.769 185.368 289.702  1.00  0.00     0.032 A 
HETATM    3  C3  UNL     1     168.420 185.707 289.848  1.00  0.00     0.002 A 
HETATM    4  C4  UNL     1     167.855 186.716 289.054  1.00  0.00     0.001 A 
HETATM    5  C5  UNL     1     168.623 187.350 288.074  1.00  0.00     0.014 A 
HETATM    6  C6  UNL     1     169.976 187.003 287.910  1.00  0.00    -0.007 A 
HETATM    7  C7  UNL     1     170.777 187.636 286.950  1.00  0.00     0.025 A 
HETATM    8  C8  UNL     1     172.140 187.314 286.844  1.00  0.00     0.006 A 
HETATM    9  C22 UNL     1     172.671 186.320 287.700  1.00  0.00     0.102 A 
HETATM   10  N3  UNL     1     171.871 185.722 288.624  1.00  0.00    -0.241 NA
ENDROOT
BRANCH   8  11
HETATM   11  C9  UNL     1     172.995 188.075 285.857  1.00  0.00     0.311 C 
BRANCH  11  12
HETATM   12  N1  UNL     1     172.415 188.008 284.509  1.00  0.00     0.091 N 
HETATM   13  H8  UNL     1     171.493 188.506 284.538  1.00  0.00     0.316 HD
BRANCH  12  14
HETATM   14  C10 UNL     1     173.272 188.706 283.532  1.00  0.00     0.308 C 
BRANCH  14  15
HETATM   15  C11 UNL     1     173.305 187.942 282.235  1.00  0.00    -0.030 A 
HETATM   16  C12 UNL     1     174.306 188.210 281.291  1.00  0.00     0.009 A 
HETATM   17  C13 UNL     1     174.314 187.543 280.063  1.00  0.00     0.009 A 
HETATM   18  C14 UNL     1     173.338 186.574 279.772  1.00  0.00    -0.030 A 
HETATM   19  C20 UNL     1     172.387 186.244 280.756  1.00  0.00     0.009 A 
HETATM   20  C21 UNL     1     172.358 186.939 281.968  1.00  0.00     0.009 A 
BRANCH  18  21
HETATM   21  C15 UNL     1     173.363 185.865 278.430  1.00  0.00     0.311 C 
BRANCH  21  22
HETATM   22  N2  UNL     1     173.719 186.738 277.278  1.00  0.00     0.092 N 
HETATM   23  C16 UNL     1     175.149 186.718 276.929  1.00  0.00     0.273 C 
HETATM   24  C17 UNL     1     175.305 186.008 275.590  1.00  0.00     0.032 C 
HETATM   25  C18 UNL     1     173.900 185.673 275.126  1.00  0.00     0.032 C 
HETATM   26  C19 UNL     1     172.974 186.452 276.043  1.00  0.00     0.273 C 
ENDBRANCH  21  22
ENDBRANCH  18  21
ENDBRANCH  14  15
ENDBRANCH  12  14
ENDBRANCH  11  12
ENDBRANCH   8  11
BRANCH   9  27
HETATM   27  S1  UNL     1     174.403 185.834 287.627  1.00  0.00    -0.105 SA
BRANCH  27  28
HETATM   28  C23 UNL     1     174.223 184.586 286.295  1.00  0.00     0.119 C 
BRANCH  28  29
HETATM   29  C24 UNL     1     174.913 184.990 285.019  1.00  0.00    -0.049 A 
HETATM   30  C25 UNL     1     175.880 186.016 285.027  1.00  0.00     0.008 A 
HETATM   31  C26 UNL     1     176.487 186.421 283.833  1.00  0.00     0.001 A 
HETATM   32  C27 UNL     1     176.149 185.802 282.631  1.00  0.00     0.000 A 
HETATM   33  C28 UNL     1     175.180 184.791 282.611  1.00  0.00     0.001 A 
HETATM   34  C29 UNL     1     174.565 184.383 283.805  1.00  0.00     0.008 A 
ENDBRANCH  28  29
ENDBRANCH  27  28
ENDBRANCH   9  27
TORSDOF 9
ENDMDL
MODEL 7
REMARK VINA RESULT:      -8.2      3.737     11.542
REMARK  9 active torsions:
REMARK  status: ('A' for Active; 'I' for Inactive)
REMARK    1  A    between atoms: C8_8  and  C9_9 
REMARK    2  A    between atoms: C9_9  and  N1_10 
REMARK    3  A    between atoms: N1_10  and  C10_11 
REMARK    4  A    between atoms: C10_11  and  C11_12 
REMARK    5  A    between atoms: C14_15  and  C15_16 
REMARK    6  A    between atoms: C15_16  and  N2_17 
REMARK    7  A    between atoms: C22_24  and  S1_25 
REMARK    8  A    between atoms: S1_25  and  C23_26 
REMARK    9  A    between atoms: C23_26  and  C24_27 
ROOT
HETATM    1  C1  UNL     1     171.166 187.164 278.635  1.00  0.00     0.068 A 
HETATM    2  C2  UNL     1     169.784 187.366 278.684  1.00  0.00     0.032 A 
HETATM    3  C3  UNL     1     169.030 187.319 277.507  1.00  0.00     0.002 A 
HETATM    4  C4  UNL     1     169.659 187.097 276.272  1.00  0.00     0.001 A 
HETATM    5  C5  UNL     1     171.035 186.866 276.220  1.00  0.00     0.014 A 
HETATM    6  C6  UNL     1     171.798 186.896 277.400  1.00  0.00    -0.007 A 
HETATM    7  C7  UNL     1     173.184 186.689 277.375  1.00  0.00     0.025 A 
HETATM    8  C8  UNL     1     173.934 186.781 278.560  1.00  0.00     0.006 A 
HETATM    9  C22 UNL     1     173.255 187.053 279.772  1.00  0.00     0.102 A 
HETATM   10  N3  UNL     1     171.909 187.250 279.768  1.00  0.00    -0.241 NA
ENDROOT
BRANCH   8  11
HETATM   11  C9  UNL     1     175.436 186.638 278.486  1.00  0.00     0.311 C 
BRANCH  11  12
HETATM   12  N1  UNL     1     175.916 186.917 277.126  1.00  0.00     0.091 N 
HETATM   13  H8  UNL     1     176.626 187.685 277.194  1.00  0.00     0.316 HD
BRANCH  12  14
HETATM   14  C10 UNL     1     176.588 185.734 276.553  1.00  0.00     0.308 C 
BRANCH  14  15
HETATM   15  C11 UNL     1     176.278 185.625 275.083  1.00  0.00    -0.030 A 
HETATM   16  C12 UNL     1     175.127 184.949 274.660  1.00  0.00     0.009 A 
HETATM   17  C13 UNL     1     174.858 184.798 273.297  1.00  0.00     0.009 A 
HETATM   18  C14 UNL     1     175.723 185.349 272.335  1.00  0.00    -0.030 A 
HETATM   19  C20 UNL     1     176.831 186.103 272.763  1.00  0.00     0.009 A 
HETATM   20  C21 UNL     1     177.118 186.220 274.126  1.00  0.00     0.009 A 
BRANCH  18  21
HETATM   21  C15 UNL     1     175.414 185.169 270.859  1.00  0.00     0.311 C 
BRANCH  21  22
HETATM   22  N2  UNL     1     176.427 184.377 270.110  1.00  0.00     0.092 N 
HETATM   23  C16 UNL     1     176.388 182.933 270.391  1.00  0.00     0.273 C 
HETATM   24  C17 UNL     1     175.874 182.216 269.148  1.00  0.00     0.032 C 
HETATM   25  C18 UNL     1     175.680 183.291 268.095  1.00  0.00     0.032 C 
HETATM   26  C19 UNL     1     176.362 184.529 268.649  1.00  0.00     0.273 C 
ENDBRANCH  21  22
ENDBRANCH  18  21
ENDBRANCH  14  15
ENDBRANCH  12  14
ENDBRANCH  11  12
ENDBRANCH   8  11
BRANCH   9  27
HETATM   27  S1  UNL     1     174.132 187.176 281.340  1.00  0.00    -0.105 SA
BRANCH  27  28
HETATM   28  C23 UNL     1     173.902 185.432 281.857  1.00  0.00     0.119 C 
BRANCH  28  29
HETATM   29  C24 UNL     1     173.811 185.273 283.351  1.00  0.00    -0.049 A 
HETATM   30  C25 UNL     1     174.937 184.861 284.093  1.00  0.00     0.008 A 
HETATM   31  C26 UNL     1     174.839 184.671 285.476  1.00  0.00     0.001 A 
HETATM   32  C27 UNL     1     173.629 184.902 286.130  1.00  0.00     0.000 A 
HETATM   33  C28 UNL     1     172.502 185.298 285.399  1.00  0.00     0.001 A 
HETATM   34  C29 UNL     1     172.594 185.488 284.012  1.00  0.00     0.008 A 
ENDBRANCH  28  29
ENDBRANCH  27  28
ENDBRANCH   9  27
TORSDOF 9
ENDMDL
MODEL 8
REMARK VINA RESULT:      -8.0      3.174      6.241
REMARK  9 active torsions:
REMARK  status: ('A' for Active; 'I' for Inactive)
REMARK    1  A    between atoms: C8_8  and  C9_9 
REMARK    2  A    between atoms: C9_9  and  N1_10 
REMARK    3  A    between atoms: N1_10  and  C10_11 
REMARK    4  A    between atoms: C10_11  and  C11_12 
REMARK    5  A    between atoms: C14_15  and  C15_16 
REMARK    6  A    between atoms: C15_16  and  N2_17 
REMARK    7  A    between atoms: C22_24  and  S1_25 
REMARK    8  A    between atoms: S1_25  and  C23_26 
REMARK    9  A    between atoms: C23_26  and  C24_27 
ROOT
HETATM    1  C1  UNL     1     175.646 186.474 274.827  1.00  0.00     0.068 A 
HETATM    2  C2  UNL     1     176.838 186.686 274.128  1.00  0.00     0.032 A 
HETATM    3  C3  UNL     1     178.061 186.346 274.715  1.00  0.00     0.002 A 
HETATM    4  C4  UNL     1     178.099 185.816 276.014  1.00  0.00     0.001 A 
HETATM    5  C5  UNL     1     176.910 185.576 276.707  1.00  0.00     0.014 A 
HETATM    6  C6  UNL     1     175.675 185.900 276.117  1.00  0.00    -0.007 A 
HETATM    7  C7  UNL     1     174.467 185.689 276.796  1.00  0.00     0.025 A 
HETATM    8  C8  UNL     1     173.251 186.075 276.210  1.00  0.00     0.006 A 
HETATM    9  C22 UNL     1     173.272 186.647 274.916  1.00  0.00     0.102 A 
HETATM   10  N3  UNL     1     174.459 186.841 274.279  1.00  0.00    -0.241 NA
ENDROOT
BRANCH   8  11
HETATM   11  C9  UNL     1     171.975 185.913 277.004  1.00  0.00     0.311 C 
BRANCH  11  12
HETATM   12  N1  UNL     1     172.274 185.632 278.414  1.00  0.00     0.091 N 
HETATM   13  H8  UNL     1     173.316 185.553 278.505  1.00  0.00     0.316 HD
BRANCH  12  14
HETATM   14  C10 UNL     1     171.831 186.743 279.277  1.00  0.00     0.308 C 
BRANCH  14  15
HETATM   15  C11 UNL     1     172.511 186.659 280.619  1.00  0.00    -0.030 A 
HETATM   16  C12 UNL     1     173.245 185.515 280.959  1.00  0.00     0.009 A 
HETATM   17  C13 UNL     1     173.837 185.407 282.221  1.00  0.00     0.009 A 
HETATM   18  C14 UNL     1     173.728 186.455 283.151  1.00  0.00    -0.030 A 
HETATM   19  C20 UNL     1     173.065 187.638 282.775  1.00  0.00     0.009 A 
HETATM   20  C21 UNL     1     172.443 187.729 281.526  1.00  0.00     0.009 A 
BRANCH  18  21
HETATM   21  C15 UNL     1     174.374 186.314 284.518  1.00  0.00     0.311 C 
BRANCH  21  22
HETATM   22  N2  UNL     1     173.495 185.709 285.556  1.00  0.00     0.092 N 
HETATM   23  C16 UNL     1     174.221 184.964 286.597  1.00  0.00     0.273 C 
HETATM   24  C17 UNL     1     174.115 185.741 287.904  1.00  0.00     0.032 C 
HETATM   25  C18 UNL     1     173.234 186.940 287.608  1.00  0.00     0.032 C 
HETATM   26  C19 UNL     1     172.619 186.665 286.248  1.00  0.00     0.273 C 
ENDBRANCH  21  22
ENDBRANCH  18  21
ENDBRANCH  14  15
ENDBRANCH  12  14
ENDBRANCH  11  12
ENDBRANCH   8  11
BRANCH   9  27
HETATM   27  S1  UNL     1     171.762 187.159 274.082  1.00  0.00    -0.105 SA
BRANCH  27  28
HETATM   28  C23 UNL     1     172.357 186.893 272.368  1.00  0.00     0.119 C 
BRANCH  28  29
HETATM   29  C24 UNL     1     172.099 185.495 271.872  1.00  0.00    -0.049 A 
HETATM   30  C25 UNL     1     173.133 184.537 271.873  1.00  0.00     0.008 A 
HETATM   31  C26 UNL     1     172.905 183.252 271.370  1.00  0.00     0.001 A 
HETATM   32  C27 UNL     1     171.647 182.907 270.877  1.00  0.00     0.000 A 
HETATM   33  C28 UNL     1     170.617 183.856 270.858  1.00  0.00     0.001 A 
HETATM   34  C29 UNL     1     170.842 185.148 271.359  1.00  0.00     0.008 A 
ENDBRANCH  28  29
ENDBRANCH  27  28
ENDBRANCH   9  27
TORSDOF 9
ENDMDL
MODEL 9
REMARK VINA RESULT:      -8.0      9.524     15.158
REMARK  9 active torsions:
REMARK  status: ('A' for Active; 'I' for Inactive)
REMARK    1  A    between atoms: C8_8  and  C9_9 
REMARK    2  A    between atoms: C9_9  and  N1_10 
REMARK    3  A    between atoms: N1_10  and  C10_11 
REMARK    4  A    between atoms: C10_11  and  C11_12 
REMARK    5  A    between atoms: C14_15  and  C15_16 
REMARK    6  A    between atoms: C15_16  and  N2_17 
REMARK    7  A    between atoms: C22_24  and  S1_25 
REMARK    8  A    between atoms: S1_25  and  C23_26 
REMARK    9  A    between atoms: C23_26  and  C24_27 
ROOT
HETATM    1  C1  UNL     1     176.519 186.246 273.719  1.00  0.00     0.068 A 
HETATM    2  C2  UNL     1     177.690 186.655 274.364  1.00  0.00     0.032 A 
HETATM    3  C3  UNL     1     177.992 186.165 275.639  1.00  0.00     0.002 A 
HETATM    4  C4  UNL     1     177.110 185.285 276.286  1.00  0.00     0.001 A 
HETATM    5  C5  UNL     1     175.952 184.851 275.635  1.00  0.00     0.014 A 
HETATM    6  C6  UNL     1     175.651 185.326 274.347  1.00  0.00    -0.007 A 
HETATM    7  C7  UNL     1     174.485 184.925 273.679  1.00  0.00     0.025 A 
HETATM    8  C8  UNL     1     174.176 185.458 272.417  1.00  0.00     0.006 A 
HETATM    9  C22 UNL     1     175.077 186.377 271.828  1.00  0.00     0.102 A 
HETATM   10  N3  UNL     1     176.201 186.750 272.500  1.00  0.00    -0.241 NA
ENDROOT
BRANCH   8  11
HETATM   11  C9  UNL     1     172.871 185.069 271.761  1.00  0.00     0.311 C 
BRANCH  11  12
HETATM   12  N1  UNL     1     172.887 183.652 271.376  1.00  0.00     0.091 N 
HETATM   13  H8  UNL     1     172.250 183.140 272.033  1.00  0.00     0.316 HD
BRANCH  12  14
HETATM   14  C10 UNL     1     172.360 183.473 270.009  1.00  0.00     0.308 C 
BRANCH  14  15
HETATM   15  C11 UNL     1     173.405 182.833 269.133  1.00  0.00    -0.030 A 
HETATM   16  C12 UNL     1     173.088 182.473 267.817  1.00  0.00     0.009 A 
HETATM   17  C13 UNL     1     174.035 181.833 267.013  1.00  0.00     0.009 A 
HETATM   18  C14 UNL     1     175.325 181.569 267.505  1.00  0.00    -0.030 A 
HETATM   19  C20 UNL     1     175.669 182.011 268.796  1.00  0.00     0.009 A 
HETATM   20  C21 UNL     1     174.708 182.617 269.610  1.00  0.00     0.009 A 
BRANCH  18  21
HETATM   21  C15 UNL     1     176.337 180.868 266.616  1.00  0.00     0.311 C 
BRANCH  21  22
HETATM   22  N2  UNL     1     176.167 179.391 266.535  1.00  0.00     0.092 N 
HETATM   23  C16 UNL     1     177.390 178.667 266.152  1.00  0.00     0.273 C 
HETATM   24  C17 UNL     1     177.879 177.881 267.363  1.00  0.00     0.032 C 
HETATM   25  C18 UNL     1     176.854 178.113 268.457  1.00  0.00     0.032 C 
HETATM   26  C19 UNL     1     175.669 178.765 267.768  1.00  0.00     0.273 C 
ENDBRANCH  21  22
ENDBRANCH  18  21
ENDBRANCH  14  15
ENDBRANCH  12  14
ENDBRANCH  11  12
ENDBRANCH   8  11
BRANCH   9  27
HETATM   27  S1  UNL     1     174.769 187.101 270.209  1.00  0.00    -0.105 SA
BRANCH  27  28
HETATM   28  C23 UNL     1     175.731 185.880 269.237  1.00  0.00     0.119 C 
BRANCH  28  29
HETATM   29  C24 UNL     1     175.204 185.703 267.838  1.00  0.00    -0.049 A 
HETATM   30  C25 UNL     1     173.892 186.105 267.515  1.00  0.00     0.008 A 
HETATM   31  C26 UNL     1     173.388 185.898 266.226  1.00  0.00     0.001 A 
HETATM   32  C27 UNL     1     174.187 185.304 265.249  1.00  0.00     0.000 A 
HETATM   33  C28 UNL     1     175.487 184.889 265.565  1.00  0.00     0.001 A 
HETATM   34  C29 UNL     1     175.996 185.092 266.857  1.00  0.00     0.008 A 
ENDBRANCH  28  29
ENDBRANCH  27  28
ENDBRANCH   9  27
TORSDOF 9
ENDMDL
