REMARK  8 active torsions:
REMARK  status: ('A' for Active; 'I' for Inactive)
REMARK    1  A    between atoms: C8_8  and  C9_9 
REMARK    2  A    between atoms: C9_9  and  N1_10 
REMARK    3  A    between atoms: N1_10  and  C10_11 
REMARK    4  A    between atoms: C10_11  and  C11_12 
REMARK    5  A    between atoms: C14_15  and  N2_16 
REMARK    6  A    between atoms: C22_24  and  S1_25 
REMARK    7  A    between atoms: S1_25  and  C23_26 
REMARK    8  A    between atoms: C23_26  and  C24_27 
ROOT
HETATM    1  C1  UNL     1      -0.611  -0.833   1.887  1.00  0.00     0.068 A 
HETATM    2  C2  UNL     1      -1.923  -0.424   2.143  1.00  0.00     0.032 A 
HETATM    3  C3  UNL     1      -2.260   0.096   3.396  1.00  0.00     0.002 A 
HETATM    4  C4  UNL     1      -1.288   0.206   4.396  1.00  0.00     0.001 A 
HETATM    5  C5  UNL     1       0.023  -0.215   4.152  1.00  0.00     0.014 A 
HETATM    6  C6  UNL     1       0.367  -0.739   2.896  1.00  0.00    -0.007 A 
HETATM    7  C7  UNL     1       1.669  -1.168   2.618  1.00  0.00     0.025 A 
HETATM    8  C8  UNL     1       1.999  -1.673   1.349  1.00  0.00     0.006 A 
HETATM    9  C22 UNL     1       0.976  -1.764   0.374  1.00  0.00     0.102 A 
HETATM   10  N3  UNL     1      -0.279  -1.328   0.668  1.00  0.00    -0.241 NA
ENDROOT
BRANCH   8  11
HETATM   11  C9  UNL     1       3.436  -2.065   1.077  1.00  0.00     0.311 C 
BRANCH  11  12
HETATM   12  N1  UNL     1       4.342  -0.947   1.405  1.00  0.00     0.091 N 
HETATM   13  H8  UNL     1       5.244  -1.356   1.745  1.00  0.00     0.316 HD
BRANCH  12  14
HETATM   14  C10 UNL     1       4.667  -0.108   0.240  1.00  0.00     0.308 C 
BRANCH  14  15
HETATM   15  C11 UNL     1       3.452   0.621  -0.274  1.00  0.00    -0.030 A 
HETATM   16  C12 UNL     1       3.008   0.414  -1.588  1.00  0.00     0.011 A 
HETATM   17  C13 UNL     1       1.807   0.979  -2.023  1.00  0.00     0.030 A 
HETATM   18  C14 UNL     1       1.037   1.775  -1.156  1.00  0.00     0.030 A 
HETATM   19  C20 UNL     1       1.516   2.027   0.141  1.00  0.00     0.030 A 
HETATM   20  C21 UNL     1       2.719   1.463   0.575  1.00  0.00     0.011 A 
BRANCH  18  21
HETATM   21  N2  UNL     1      -0.266   2.253  -1.556  1.00  0.00    -0.381 N 
HETATM   22  C15 UNL     1      -0.554   2.627  -2.946  1.00  0.00     0.123 C 
HETATM   23  C16 UNL     1      -1.487   1.587  -3.591  1.00  0.00     0.020 C 
HETATM   24  C17 UNL     1      -2.423   0.904  -2.570  1.00  0.00     0.003 C 
HETATM   25  C18 UNL     1      -2.707   1.807  -1.362  1.00  0.00     0.020 C 
HETATM   26  C19 UNL     1      -1.398   2.142  -0.621  1.00  0.00     0.123 C 
ENDBRANCH  18  21
ENDBRANCH  14  15
ENDBRANCH  12  14
ENDBRANCH  11  12
ENDBRANCH   8  11
BRANCH   9  27
HETATM   27  S1  UNL     1       1.262  -2.447  -1.267  1.00  0.00    -0.105 SA
BRANCH  27  28
HETATM   28  C23 UNL     1       0.365  -4.008  -0.953  1.00  0.00     0.119 C 
BRANCH  28  29
HETATM   29  C24 UNL     1      -1.123  -3.772  -0.981  1.00  0.00    -0.049 A 
HETATM   30  C25 UNL     1      -1.907  -4.012   0.161  1.00  0.00     0.008 A 
HETATM   31  C26 UNL     1      -3.281  -3.751   0.140  1.00  0.00     0.001 A 
HETATM   32  C27 UNL     1      -3.882  -3.252  -1.020  1.00  0.00     0.000 A 
HETATM   33  C28 UNL     1      -3.112  -3.020  -2.162  1.00  0.00     0.001 A 
HETATM   34  C29 UNL     1      -1.739  -3.286  -2.148  1.00  0.00     0.008 A 
ENDBRANCH  28  29
ENDBRANCH  27  28
ENDBRANCH   9  27
TORSDOF 8
