MODEL 1
REMARK VINA RESULT:      -7.1      0.000      0.000
REMARK  11 active torsions:
REMARK  status: ('A' for Active; 'I' for Inactive)
REMARK    1  A    between atoms: C_1  and  C_20 
REMARK    2  A    between atoms: C_5  and  S_26 
REMARK    3  A    between atoms: C_6  and  C_8 
REMARK    4  A    between atoms: C_8  and  N_9 
REMARK    5  A    between atoms: N_9  and  C_10 
REMARK    6  A    between atoms: C_10  and  C_11 
REMARK    7  A    between atoms: C_11  and  C_12 
REMARK    8  A    between atoms: N_15  and  C_18 
REMARK    9  A    between atoms: C_23  and  O_34 
REMARK   10  A    between atoms: S_26  and  C_33 
REMARK   11  A    between atoms: C_27  and  C_33 
ROOT
HETATM    1  C           1     175.308 185.351 272.289  0.00  0.00    -0.010 A 
HETATM    2  C           1     176.095 185.440 271.153  0.00  0.00     0.101 A 
HETATM    3  N           1     175.618 185.307 269.896  0.00  0.00    -0.359 N 
ATOM      4  HN          1     176.228 185.379 269.082  1.00  0.00     0.166 HD
HETATM    5  C           1     174.293 185.074 269.773  0.00  0.00     0.077 A 
HETATM    6  C           1     173.425 184.968 270.848  0.00  0.00     0.004 A 
HETATM    7  C           1     173.946 185.110 272.131  0.00  0.00     0.025 A 
ENDROOT
BRANCH   6   8
HETATM    8  C           1     171.967 184.709 270.636  0.00  0.00     0.307 C 
BRANCH   8   9
HETATM    9  N           1     171.196 185.701 271.335  0.00  0.00     0.087 N 
HETATM   10  H           1     170.235 185.376 271.436  0.00  0.00     0.316 HD
BRANCH   9  11
HETATM   11  C           1     171.214 186.904 270.546  0.00  0.00     0.270 C 
BRANCH  11  12
HETATM   12  C           1     171.181 188.116 271.467  0.00  0.00     0.034 C 
BRANCH  12  13
HETATM   13  C           1     172.222 189.130 271.009  0.00  0.00    -0.010 C 
HETATM   14  C           1     171.646 190.536 271.147  0.00  0.00     0.035 C 
HETATM   15  C           1     172.711 191.599 270.888  0.00  0.00     0.272 C 
HETATM   16  N           1     173.873 191.418 271.759  0.00  0.00     0.088 N 
HETATM   17  C           1     174.479 190.099 271.576  0.00  0.00     0.272 C 
HETATM   18  C           1     173.477 188.980 271.861  0.00  0.00     0.035 C 
BRANCH  16  19
HETATM   19  C           1     174.836 192.402 271.346  0.00  0.00     0.268 C 
HETATM   20  C           1     175.920 191.734 270.510  0.00  0.00     0.037 C 
ENDBRANCH  16  19
ENDBRANCH  12  13
ENDBRANCH  11  12
ENDBRANCH   9  11
ENDBRANCH   8   9
ENDBRANCH   6   8
BRANCH   5  21
HETATM   21  S           1     173.609 184.889 268.102  0.00  0.00    -0.107 SA
BRANCH  21  22
HETATM   22  C           1     174.692 186.154 267.381  0.00  0.00     0.122 C 
BRANCH  22  23
HETATM   23  C           1     173.994 187.478 267.398  0.00  0.00    -0.049 A 
HETATM   24  C           1     172.688 187.584 266.921  0.00  0.00     0.008 A 
HETATM   25  C           1     172.038 188.818 266.938  0.00  0.00     0.001 A 
HETATM   26  C           1     172.694 189.946 267.430  0.00  0.00     0.000 A 
HETATM   27  C           1     174.000 189.839 267.907  0.00  0.00     0.001 A 
HETATM   28  C           1     174.651 188.606 267.891  0.00  0.00     0.008 A 
ENDBRANCH  22  23
ENDBRANCH  21  22
ENDBRANCH   5  21
BRANCH   1  29
HETATM   29  C           1     175.841 185.491 273.507  0.00  0.00    -0.024 A 
HETATM   30  C           1     175.187 184.962 274.619  0.00  0.00     0.015 A 
HETATM   31  C           1     175.743 185.109 275.891  0.00  0.00     0.037 A 
HETATM   32  C           1     176.952 185.785 276.049  0.00  0.00     0.068 A 
HETATM   33  C           1     177.607 186.314 274.937  0.00  0.00     0.037 A 
HETATM   34  C           1     177.050 186.168 273.665  0.00  0.00     0.015 A 
BRANCH  32  35
HETATM   35  O           1     177.492 185.927 277.284  0.00  0.00    -0.356 OA
HETATM   36  C           1     178.732 185.278 277.362  0.00  0.00     0.210 C 
ENDBRANCH  32  35
ENDBRANCH   1  29
TORSDOF 11
ENDMDL
MODEL 2
REMARK VINA RESULT:      -7.0      8.847     12.416
REMARK  11 active torsions:
REMARK  status: ('A' for Active; 'I' for Inactive)
REMARK    1  A    between atoms: C_1  and  C_20 
REMARK    2  A    between atoms: C_5  and  S_26 
REMARK    3  A    between atoms: C_6  and  C_8 
REMARK    4  A    between atoms: C_8  and  N_9 
REMARK    5  A    between atoms: N_9  and  C_10 
REMARK    6  A    between atoms: C_10  and  C_11 
REMARK    7  A    between atoms: C_11  and  C_12 
REMARK    8  A    between atoms: N_15  and  C_18 
REMARK    9  A    between atoms: C_23  and  O_34 
REMARK   10  A    between atoms: S_26  and  C_33 
REMARK   11  A    between atoms: C_27  and  C_33 
ROOT
HETATM    1  C           1     171.627 189.303 281.031  0.00  0.00    -0.010 A 
HETATM    2  C           1     170.905 188.964 279.898  0.00  0.00     0.101 A 
HETATM    3  N           1     171.163 187.876 279.141  0.00  0.00    -0.359 N 
ATOM      4  HN          1     170.610 187.657 278.312  1.00  0.00     0.166 HD
HETATM    5  C           1     172.191 187.093 279.535  0.00  0.00     0.077 A 
HETATM    6  C           1     172.970 187.349 280.652  0.00  0.00     0.004 A 
HETATM    7  C           1     172.680 188.477 281.413  0.00  0.00     0.025 A 
ENDROOT
BRANCH   6   8
HETATM    8  C           1     174.094 186.436 281.030  0.00  0.00     0.307 C 
BRANCH   8   9
HETATM    9  N           1     175.117 187.188 281.706  0.00  0.00     0.087 N 
HETATM   10  H           1     175.916 187.308 281.083  0.00  0.00     0.316 HD
BRANCH   9  11
HETATM   11  C           1     175.520 186.436 282.864  0.00  0.00     0.270 C 
BRANCH  11  12
HETATM   12  C           1     174.824 185.083 282.859  0.00  0.00     0.034 C 
BRANCH  12  13
HETATM   13  C           1     174.305 184.773 284.257  0.00  0.00    -0.010 C 
HETATM   14  C           1     175.264 185.359 285.289  0.00  0.00     0.035 C 
HETATM   15  C           1     174.694 185.248 286.701  0.00  0.00     0.272 C 
HETATM   16  N           1     173.373 185.870 286.796  0.00  0.00     0.088 N 
HETATM   17  C           1     172.425 185.260 285.863  0.00  0.00     0.272 C 
HETATM   18  C           1     172.913 185.372 284.419  0.00  0.00     0.035 C 
BRANCH  16  19
HETATM   19  C           1     172.905 185.605 288.130  0.00  0.00     0.268 C 
HETATM   20  C           1     174.006 185.934 289.130  0.00  0.00     0.037 C 
ENDBRANCH  16  19
ENDBRANCH  12  13
ENDBRANCH  11  12
ENDBRANCH   9  11
ENDBRANCH   8   9
ENDBRANCH   6   8
BRANCH   5  21
HETATM   21  S           1     172.572 185.620 278.546  0.00  0.00    -0.107 SA
BRANCH  21  22
HETATM   22  C           1     173.017 186.572 277.067  0.00  0.00     0.122 C 
BRANCH  22  23
HETATM   23  C           1     174.401 186.201 276.631  0.00  0.00    -0.049 A 
HETATM   24  C           1     175.506 186.754 277.277  0.00  0.00     0.008 A 
HETATM   25  C           1     176.796 186.408 276.872  0.00  0.00     0.001 A 
HETATM   26  C           1     176.979 185.510 275.821  0.00  0.00     0.000 A 
HETATM   27  C           1     175.873 184.956 275.177  0.00  0.00     0.001 A 
HETATM   28  C           1     174.584 185.302 275.581  0.00  0.00     0.008 A 
ENDBRANCH  22  23
ENDBRANCH  21  22
ENDBRANCH   5  21
BRANCH   1  29
HETATM   29  C           1     171.321 190.395 281.739  0.00  0.00    -0.024 A 
HETATM   30  C           1     172.019 191.583 281.523  0.00  0.00     0.015 A 
HETATM   31  C           1     171.701 192.723 282.261  0.00  0.00     0.037 A 
HETATM   32  C           1     170.686 192.674 283.217  0.00  0.00     0.068 A 
HETATM   33  C           1     169.988 191.486 283.433  0.00  0.00     0.037 A 
HETATM   34  C           1     170.306 190.346 282.694  0.00  0.00     0.015 A 
BRANCH  32  35
HETATM   35  O           1     170.376 193.782 283.934  0.00  0.00    -0.356 OA
HETATM   36  C           1     169.550 193.457 285.018  0.00  0.00     0.210 C 
ENDBRANCH  32  35
ENDBRANCH   1  29
TORSDOF 11
ENDMDL
MODEL 3
REMARK VINA RESULT:      -6.9      3.499      6.514
REMARK  11 active torsions:
REMARK  status: ('A' for Active; 'I' for Inactive)
REMARK    1  A    between atoms: C_1  and  C_20 
REMARK    2  A    between atoms: C_5  and  S_26 
REMARK    3  A    between atoms: C_6  and  C_8 
REMARK    4  A    between atoms: C_8  and  N_9 
REMARK    5  A    between atoms: N_9  and  C_10 
REMARK    6  A    between atoms: C_10  and  C_11 
REMARK    7  A    between atoms: C_11  and  C_12 
REMARK    8  A    between atoms: N_15  and  C_18 
REMARK    9  A    between atoms: C_23  and  O_34 
REMARK   10  A    between atoms: S_26  and  C_33 
REMARK   11  A    between atoms: C_27  and  C_33 
ROOT
HETATM    1  C           1     175.518 185.528 272.186  0.00  0.00    -0.010 A 
HETATM    2  C           1     174.384 186.230 271.810  0.00  0.00     0.101 A 
HETATM    3  N           1     173.822 186.148 270.584  0.00  0.00    -0.359 N 
ATOM      4  HN          1     172.986 186.680 270.342  1.00  0.00     0.166 HD
HETATM    5  C           1     174.423 185.326 269.696  0.00  0.00     0.077 A 
HETATM    6  C           1     175.559 184.584 269.978  0.00  0.00     0.004 A 
HETATM    7  C           1     176.115 184.689 271.249  0.00  0.00     0.025 A 
ENDROOT
BRANCH   6   8
HETATM    8  C           1     176.172 183.693 268.944  0.00  0.00     0.307 C 
BRANCH   8   9
HETATM    9  N           1     177.322 184.340 268.373  0.00  0.00     0.087 N 
HETATM   10  H           1     177.271 185.343 268.554  0.00  0.00     0.316 HD
BRANCH   9  11
HETATM   11  C           1     177.295 184.107 266.954  0.00  0.00     0.270 C 
BRANCH  11  12
HETATM   12  C           1     176.577 182.796 266.667  0.00  0.00     0.034 C 
BRANCH  12  13
HETATM   13  C           1     176.731 182.443 265.193  0.00  0.00    -0.010 C 
HETATM   14  C           1     176.853 183.729 264.381  0.00  0.00     0.035 C 
HETATM   15  C           1     177.205 183.433 262.925  0.00  0.00     0.272 C 
HETATM   16  N           1     178.422 182.627 262.820  0.00  0.00     0.088 N 
HETATM   17  C           1     178.285 181.356 263.533  0.00  0.00     0.272 C 
HETATM   18  C           1     177.973 181.577 265.013  0.00  0.00     0.035 C 
BRANCH  16  19
HETATM   19  C           1     178.582 182.328 261.423  0.00  0.00     0.268 C 
HETATM   20  C           1     179.347 183.458 260.746  0.00  0.00     0.037 C 
ENDBRANCH  16  19
ENDBRANCH  12  13
ENDBRANCH  11  12
ENDBRANCH   9  11
ENDBRANCH   8   9
ENDBRANCH   6   8
BRANCH   5  21
HETATM   21  S           1     173.701 185.185 268.037  0.00  0.00    -0.107 SA
BRANCH  21  22
HETATM   22  C           1     174.662 186.568 267.362  0.00  0.00     0.122 C 
BRANCH  22  23
HETATM   23  C           1     173.817 187.804 267.347  0.00  0.00    -0.049 A 
HETATM   24  C           1     172.536 187.766 266.796  0.00  0.00     0.008 A 
HETATM   25  C           1     171.749 188.917 266.782  0.00  0.00     0.001 A 
HETATM   26  C           1     172.241 190.106 267.320  0.00  0.00     0.000 A 
HETATM   27  C           1     173.521 190.143 267.872  0.00  0.00     0.001 A 
HETATM   28  C           1     174.309 188.993 267.885  0.00  0.00     0.008 A 
ENDBRANCH  22  23
ENDBRANCH  21  22
ENDBRANCH   5  21
BRANCH   1  29
HETATM   29  C           1     176.026 185.653 273.416  0.00  0.00    -0.024 A 
HETATM   30  C           1     175.356 185.098 274.506  0.00  0.00     0.015 A 
HETATM   31  C           1     175.886 185.228 275.790  0.00  0.00     0.037 A 
HETATM   32  C           1     177.085 185.914 275.984  0.00  0.00     0.068 A 
HETATM   33  C           1     177.755 186.469 274.893  0.00  0.00     0.037 A 
HETATM   34  C           1     177.225 186.339 273.609  0.00  0.00     0.015 A 
BRANCH  32  35
HETATM   35  O           1     177.600 186.040 277.231  0.00  0.00    -0.356 OA
HETATM   36  C           1     178.756 185.260 277.372  0.00  0.00     0.210 C 
ENDBRANCH  32  35
ENDBRANCH   1  29
TORSDOF 11
ENDMDL
MODEL 4
REMARK VINA RESULT:      -6.9      8.384     12.399
REMARK  11 active torsions:
REMARK  status: ('A' for Active; 'I' for Inactive)
REMARK    1  A    between atoms: C_1  and  C_20 
REMARK    2  A    between atoms: C_5  and  S_26 
REMARK    3  A    between atoms: C_6  and  C_8 
REMARK    4  A    between atoms: C_8  and  N_9 
REMARK    5  A    between atoms: N_9  and  C_10 
REMARK    6  A    between atoms: C_10  and  C_11 
REMARK    7  A    between atoms: C_11  and  C_12 
REMARK    8  A    between atoms: N_15  and  C_18 
REMARK    9  A    between atoms: C_23  and  O_34 
REMARK   10  A    between atoms: S_26  and  C_33 
REMARK   11  A    between atoms: C_27  and  C_33 
ROOT
HETATM    1  C           1     172.567 189.421 282.415  0.00  0.00    -0.010 A 
HETATM    2  C           1     173.686 189.350 283.229  0.00  0.00     0.101 A 
HETATM    3  N           1     174.577 188.335 283.193  0.00  0.00    -0.359 N 
ATOM      4  HN          1     175.392 188.316 283.807  1.00  0.00     0.166 HD
HETATM    5  C           1     174.336 187.348 282.304  0.00  0.00     0.077 A 
HETATM    6  C           1     173.245 187.330 281.449  0.00  0.00     0.004 A 
HETATM    7  C           1     172.345 188.389 281.509  0.00  0.00     0.025 A 
ENDROOT
BRANCH   6   8
HETATM    8  C           1     173.041 186.201 280.487  0.00  0.00     0.307 C 
BRANCH   8   9
HETATM    9  N           1     171.973 186.530 279.582  0.00  0.00     0.087 N 
HETATM   10  H           1     171.089 186.547 280.092  0.00  0.00     0.316 HD
BRANCH   9  11
HETATM   11  C           1     171.924 185.505 278.574  0.00  0.00     0.270 C 
BRANCH  11  12
HETATM   12  C           1     172.325 186.096 277.229  0.00  0.00     0.034 C 
BRANCH  12  13
HETATM   13  C           1     173.764 185.710 276.913  0.00  0.00    -0.010 C 
HETATM   14  C           1     173.906 185.496 275.409  0.00  0.00     0.035 C 
HETATM   15  C           1     175.368 185.298 275.014  0.00  0.00     0.272 C 
HETATM   16  N           1     176.202 186.412 275.468  0.00  0.00     0.088 N 
HETATM   17  C           1     176.131 186.574 276.921  0.00  0.00     0.272 C 
HETATM   18  C           1     174.697 186.820 277.386  0.00  0.00     0.035 C 
BRANCH  16  19
HETATM   19  C           1     177.555 186.057 275.134  0.00  0.00     0.268 C 
HETATM   20  C           1     178.288 185.608 276.391  0.00  0.00     0.037 C 
ENDBRANCH  16  19
ENDBRANCH  12  13
ENDBRANCH  11  12
ENDBRANCH   9  11
ENDBRANCH   8   9
ENDBRANCH   6   8
BRANCH   5  21
HETATM   21  S           1     175.508 185.965 282.222  0.00  0.00    -0.107 SA
BRANCH  21  22
HETATM   22  C           1     174.273 184.723 282.693  0.00  0.00     0.122 C 
BRANCH  22  23
HETATM   23  C           1     173.936 184.878 284.144  0.00  0.00    -0.049 A 
HETATM   24  C           1     174.925 184.704 285.111  0.00  0.00     0.008 A 
HETATM   25  C           1     174.611 184.850 286.463  0.00  0.00     0.001 A 
HETATM   26  C           1     173.308 185.169 286.847  0.00  0.00     0.000 A 
HETATM   27  C           1     172.320 185.344 285.878  0.00  0.00     0.001 A 
HETATM   28  C           1     172.633 185.199 284.527  0.00  0.00     0.008 A 
ENDBRANCH  22  23
ENDBRANCH  21  22
ENDBRANCH   5  21
BRANCH   1  29
HETATM   29  C           1     171.722 190.453 282.499  0.00  0.00    -0.024 A 
HETATM   30  C           1     172.022 191.653 281.856  0.00  0.00     0.015 A 
HETATM   31  C           1     171.140 192.731 281.943  0.00  0.00     0.037 A 
HETATM   32  C           1     169.959 192.608 282.674  0.00  0.00     0.068 A 
HETATM   33  C           1     169.658 191.408 283.317  0.00  0.00     0.037 A 
HETATM   34  C           1     170.540 190.330 283.230  0.00  0.00     0.015 A 
BRANCH  32  35
HETATM   35  O           1     169.102 193.655 282.758  0.00  0.00    -0.356 OA
HETATM   36  C           1     168.977 194.296 281.517  0.00  0.00     0.210 C 
ENDBRANCH  32  35
ENDBRANCH   1  29
TORSDOF 11
ENDMDL
MODEL 5
REMARK VINA RESULT:      -6.8      2.284      3.760
REMARK  11 active torsions:
REMARK  status: ('A' for Active; 'I' for Inactive)
REMARK    1  A    between atoms: C_1  and  C_20 
REMARK    2  A    between atoms: C_5  and  S_26 
REMARK    3  A    between atoms: C_6  and  C_8 
REMARK    4  A    between atoms: C_8  and  N_9 
REMARK    5  A    between atoms: N_9  and  C_10 
REMARK    6  A    between atoms: C_10  and  C_11 
REMARK    7  A    between atoms: C_11  and  C_12 
REMARK    8  A    between atoms: N_15  and  C_18 
REMARK    9  A    between atoms: C_23  and  O_34 
REMARK   10  A    between atoms: S_26  and  C_33 
REMARK   11  A    between atoms: C_27  and  C_33 
ROOT
HETATM    1  C           1     175.457 185.499 272.558  0.00  0.00    -0.010 A 
HETATM    2  C           1     176.214 185.186 271.442  0.00  0.00     0.101 A 
HETATM    3  N           1     175.702 185.062 270.198  0.00  0.00    -0.359 N 
ATOM      4  HN          1     176.290 184.830 269.397  1.00  0.00     0.166 HD
HETATM    5  C           1     174.372 185.259 270.068  0.00  0.00     0.077 A 
HETATM    6  C           1     173.533 185.575 271.125  0.00  0.00     0.004 A 
HETATM    7  C           1     174.089 185.696 272.393  0.00  0.00     0.025 A 
ENDROOT
BRANCH   6   8
HETATM    8  C           1     172.066 185.780 270.906  0.00  0.00     0.307 C 
BRANCH   8   9
HETATM    9  N           1     171.441 186.135 272.152  0.00  0.00     0.087 N 
HETATM   10  H           1     170.676 185.488 272.344  0.00  0.00     0.316 HD
BRANCH   9  11
HETATM   11  C           1     170.917 187.468 272.014  0.00  0.00     0.270 C 
BRANCH  11  12
HETATM   12  C           1     171.315 188.298 273.225  0.00  0.00     0.034 C 
BRANCH  12  13
HETATM   13  C           1     171.405 187.398 274.451  0.00  0.00    -0.010 C 
HETATM   14  C           1     172.642 187.777 275.261  0.00  0.00     0.035 C 
HETATM   15  C           1     172.675 187.040 276.598  0.00  0.00     0.272 C 
HETATM   16  N           1     171.451 187.270 277.367  0.00  0.00     0.088 N 
HETATM   17  C           1     170.265 186.837 276.628  0.00  0.00     0.272 C 
HETATM   18  C           1     170.143 187.568 275.291  0.00  0.00     0.035 C 
BRANCH  16  19
HETATM   19  C           1     171.559 186.446 278.541  0.00  0.00     0.268 C 
HETATM   20  C           1     171.825 185.004 278.127  0.00  0.00     0.037 C 
ENDBRANCH  16  19
ENDBRANCH  12  13
ENDBRANCH  11  12
ENDBRANCH   9  11
ENDBRANCH   8   9
ENDBRANCH   6   8
BRANCH   5  21
HETATM   21  S           1     173.641 185.102 268.414  0.00  0.00    -0.107 SA
BRANCH  21  22
HETATM   22  C           1     174.803 186.268 267.651  0.00  0.00     0.122 C 
BRANCH  22  23
HETATM   23  C           1     174.201 187.639 267.639  0.00  0.00    -0.049 A 
HETATM   24  C           1     174.943 188.730 268.092  0.00  0.00     0.008 A 
HETATM   25  C           1     174.381 190.007 268.080  0.00  0.00     0.001 A 
HETATM   26  C           1     173.079 190.193 267.616  0.00  0.00     0.000 A 
HETATM   27  C           1     172.339 189.102 267.162  0.00  0.00     0.001 A 
HETATM   28  C           1     172.899 187.825 267.174  0.00  0.00     0.008 A 
ENDBRANCH  22  23
ENDBRANCH  21  22
ENDBRANCH   5  21
BRANCH   1  29
HETATM   29  C           1     176.024 185.607 273.764  0.00  0.00    -0.024 A 
HETATM   30  C           1     175.393 185.063 274.882  0.00  0.00     0.015 A 
HETATM   31  C           1     175.985 185.176 276.141  0.00  0.00     0.037 A 
HETATM   32  C           1     177.206 185.834 276.281  0.00  0.00     0.068 A 
HETATM   33  C           1     177.838 186.378 275.163  0.00  0.00     0.037 A 
HETATM   34  C           1     177.246 186.265 273.904  0.00  0.00     0.015 A 
BRANCH  32  35
HETATM   35  O           1     177.781 185.943 277.504  0.00  0.00    -0.356 OA
HETATM   36  C           1     178.959 185.186 277.569  0.00  0.00     0.210 C 
ENDBRANCH  32  35
ENDBRANCH   1  29
TORSDOF 11
ENDMDL
MODEL 6
REMARK VINA RESULT:      -6.8      2.539      6.013
REMARK  11 active torsions:
REMARK  status: ('A' for Active; 'I' for Inactive)
REMARK    1  A    between atoms: C_1  and  C_20 
REMARK    2  A    between atoms: C_5  and  S_26 
REMARK    3  A    between atoms: C_6  and  C_8 
REMARK    4  A    between atoms: C_8  and  N_9 
REMARK    5  A    between atoms: N_9  and  C_10 
REMARK    6  A    between atoms: C_10  and  C_11 
REMARK    7  A    between atoms: C_11  and  C_12 
REMARK    8  A    between atoms: N_15  and  C_18 
REMARK    9  A    between atoms: C_23  and  O_34 
REMARK   10  A    between atoms: S_26  and  C_33 
REMARK   11  A    between atoms: C_27  and  C_33 
ROOT
HETATM    1  C           1     174.287 188.979 269.262  0.00  0.00    -0.010 A 
HETATM    2  C           1     174.631 188.924 267.921  0.00  0.00     0.101 A 
HETATM    3  N           1     174.497 187.819 267.156  0.00  0.00    -0.359 N 
ATOM      4  HN          1     174.760 187.814 266.171  1.00  0.00     0.166 HD
HETATM    5  C           1     173.996 186.720 267.762  0.00  0.00     0.077 A 
HETATM    6  C           1     173.623 186.677 269.096  0.00  0.00     0.004 A 
HETATM    7  C           1     173.773 187.831 269.858  0.00  0.00     0.025 A 
ENDROOT
BRANCH   6   8
HETATM    8  C           1     173.074 185.423 269.701  0.00  0.00     0.307 C 
BRANCH   8   9
HETATM    9  N           1     172.138 185.761 270.739  0.00  0.00     0.087 N 
HETATM   10  H           1     172.092 186.776 270.837  0.00  0.00     0.316 HD
BRANCH   9  11
HETATM   11  C           1     172.618 185.183 271.966  0.00  0.00     0.270 C 
BRANCH  11  12
HETATM   12  C           1     173.929 184.454 271.705  0.00  0.00     0.034 C 
BRANCH  12  13
HETATM   13  C           1     174.914 184.764 272.826  0.00  0.00    -0.010 C 
HETATM   14  C           1     175.946 185.768 272.321  0.00  0.00     0.035 C 
HETATM   15  C           1     176.840 186.262 273.457  0.00  0.00     0.272 C 
HETATM   16  N           1     176.051 186.824 274.555  0.00  0.00     0.088 N 
HETATM   17  C           1     175.111 185.841 275.096  0.00  0.00     0.272 C 
HETATM   18  C           1     174.153 185.332 274.019  0.00  0.00     0.035 C 
BRANCH  16  19
HETATM   19  C           1     176.990 187.148 275.594  0.00  0.00     0.268 C 
HETATM   20  C           1     177.900 185.953 275.848  0.00  0.00     0.037 C 
ENDBRANCH  16  19
ENDBRANCH  12  13
ENDBRANCH  11  12
ENDBRANCH   9  11
ENDBRANCH   8   9
ENDBRANCH   6   8
BRANCH   5  21
HETATM   21  S           1     173.797 185.212 266.771  0.00  0.00    -0.107 SA
BRANCH  21  22
HETATM   22  C           1     175.577 184.866 266.709  0.00  0.00     0.122 C 
BRANCH  22  23
HETATM   23  C           1     175.978 184.088 267.923  0.00  0.00    -0.049 A 
HETATM   24  C           1     175.384 182.854 268.188  0.00  0.00     0.008 A 
HETATM   25  C           1     175.758 182.129 269.319  0.00  0.00     0.001 A 
HETATM   26  C           1     176.727 182.636 270.185  0.00  0.00     0.000 A 
HETATM   27  C           1     177.322 183.869 269.919  0.00  0.00     0.001 A 
HETATM   28  C           1     176.948 184.595 268.788  0.00  0.00     0.008 A 
ENDBRANCH  22  23
ENDBRANCH  21  22
ENDBRANCH   5  21
BRANCH   1  29
HETATM   29  C           1     174.445 190.105 269.965  0.00  0.00    -0.024 A 
HETATM   30  C           1     173.393 190.595 270.740  0.00  0.00     0.015 A 
HETATM   31  C           1     173.557 191.770 271.474  0.00  0.00     0.037 A 
HETATM   32  C           1     174.772 192.454 271.434  0.00  0.00     0.068 A 
HETATM   33  C           1     175.823 191.964 270.659  0.00  0.00     0.037 A 
HETATM   34  C           1     175.659 190.789 269.924  0.00  0.00     0.015 A 
BRANCH  32  35
HETATM   35  O           1     174.931 193.595 272.147  0.00  0.00    -0.356 OA
HETATM   36  C           1     173.946 193.703 273.139  0.00  0.00     0.210 C 
ENDBRANCH  32  35
ENDBRANCH   1  29
TORSDOF 11
ENDMDL
MODEL 7
REMARK VINA RESULT:      -6.8      3.762      7.402
REMARK  11 active torsions:
REMARK  status: ('A' for Active; 'I' for Inactive)
REMARK    1  A    between atoms: C_1  and  C_20 
REMARK    2  A    between atoms: C_5  and  S_26 
REMARK    3  A    between atoms: C_6  and  C_8 
REMARK    4  A    between atoms: C_8  and  N_9 
REMARK    5  A    between atoms: N_9  and  C_10 
REMARK    6  A    between atoms: C_10  and  C_11 
REMARK    7  A    between atoms: C_11  and  C_12 
REMARK    8  A    between atoms: N_15  and  C_18 
REMARK    9  A    between atoms: C_23  and  O_34 
REMARK   10  A    between atoms: S_26  and  C_33 
REMARK   11  A    between atoms: C_27  and  C_33 
ROOT
HETATM    1  C           1     176.034 184.822 267.254  0.00  0.00    -0.010 A 
HETATM    2  C           1     176.389 184.277 268.477  0.00  0.00     0.101 A 
HETATM    3  N           1     176.052 184.819 269.667  0.00  0.00    -0.359 N 
ATOM      4  HN          1     176.331 184.389 270.549  1.00  0.00     0.166 HD
HETATM    5  C           1     175.328 185.959 269.630  0.00  0.00     0.077 A 
HETATM    6  C           1     174.925 186.579 268.458  0.00  0.00     0.004 A 
HETATM    7  C           1     175.287 185.997 267.248  0.00  0.00     0.025 A 
ENDROOT
BRANCH   6   8
HETATM    8  C           1     174.123 187.842 268.493  0.00  0.00     0.307 C 
BRANCH   8   9
HETATM    9  N           1     174.763 188.839 267.679  0.00  0.00     0.087 N 
HETATM   10  H           1     175.755 188.619 267.589  0.00  0.00     0.316 HD
BRANCH   9  11
HETATM   11  C           1     174.613 190.107 268.343  0.00  0.00     0.270 C 
BRANCH  11  12
HETATM   12  C           1     175.441 190.114 269.620  0.00  0.00     0.034 C 
BRANCH  12  13
HETATM   13  C           1     174.692 190.871 270.708  0.00  0.00    -0.010 C 
HETATM   14  C           1     175.363 192.224 270.930  0.00  0.00     0.035 C 
HETATM   15  C           1     174.540 193.103 271.869  0.00  0.00     0.272 C 
HETATM   16  N           1     173.169 193.269 271.385  0.00  0.00     0.088 N 
HETATM   17  C           1     172.492 191.979 271.243  0.00  0.00     0.272 C 
HETATM   18  C           1     173.240 191.059 270.280  0.00  0.00     0.035 C 
BRANCH  16  19
HETATM   19  C           1     172.477 194.016 272.400  0.00  0.00     0.268 C 
HETATM   20  C           1     171.321 194.781 271.769  0.00  0.00     0.037 C 
ENDBRANCH  16  19
ENDBRANCH  12  13
ENDBRANCH  11  12
ENDBRANCH   9  11
ENDBRANCH   8   9
ENDBRANCH   6   8
BRANCH   5  21
HETATM   21  S           1     174.853 186.722 271.207  0.00  0.00    -0.107 SA
BRANCH  21  22
HETATM   22  C           1     174.980 185.172 272.142  0.00  0.00     0.122 C 
BRANCH  22  23
HETATM   23  C           1     175.749 185.410 273.404  0.00  0.00    -0.049 A 
HETATM   24  C           1     176.948 186.121 273.366  0.00  0.00     0.008 A 
HETATM   25  C           1     177.664 186.344 274.542  0.00  0.00     0.001 A 
HETATM   26  C           1     177.181 185.856 275.756  0.00  0.00     0.000 A 
HETATM   27  C           1     175.981 185.146 275.794  0.00  0.00     0.001 A 
HETATM   28  C           1     175.265 184.923 274.618  0.00  0.00     0.008 A 
ENDBRANCH  22  23
ENDBRANCH  21  22
ENDBRANCH   5  21
BRANCH   1  29
HETATM   29  C           1     176.398 184.236 266.109  0.00  0.00    -0.024 A 
HETATM   30  C           1     177.172 183.076 266.136  0.00  0.00     0.015 A 
HETATM   31  C           1     177.554 182.464 264.941  0.00  0.00     0.037 A 
HETATM   32  C           1     177.162 183.013 263.720  0.00  0.00     0.068 A 
HETATM   33  C           1     176.388 184.173 263.694  0.00  0.00     0.037 A 
HETATM   34  C           1     176.006 184.785 264.889  0.00  0.00     0.015 A 
BRANCH  32  35
HETATM   35  O           1     177.532 182.419 262.560  0.00  0.00    -0.356 OA
HETATM   36  C           1     178.905 182.140 262.560  0.00  0.00     0.210 C 
ENDBRANCH  32  35
ENDBRANCH   1  29
TORSDOF 11
ENDMDL
MODEL 8
REMARK VINA RESULT:      -6.6      8.712     12.687
REMARK  11 active torsions:
REMARK  status: ('A' for Active; 'I' for Inactive)
REMARK    1  A    between atoms: C_1  and  C_20 
REMARK    2  A    between atoms: C_5  and  S_26 
REMARK    3  A    between atoms: C_6  and  C_8 
REMARK    4  A    between atoms: C_8  and  N_9 
REMARK    5  A    between atoms: N_9  and  C_10 
REMARK    6  A    between atoms: C_10  and  C_11 
REMARK    7  A    between atoms: C_11  and  C_12 
REMARK    8  A    between atoms: N_15  and  C_18 
REMARK    9  A    between atoms: C_23  and  O_34 
REMARK   10  A    between atoms: S_26  and  C_33 
REMARK   11  A    between atoms: C_27  and  C_33 
ROOT
HETATM    1  C           1     173.825 186.842 278.386  0.00  0.00    -0.010 A 
HETATM    2  C           1     172.484 187.158 278.529  0.00  0.00     0.101 A 
HETATM    3  N           1     171.938 187.614 279.677  0.00  0.00    -0.359 N 
ATOM      4  HN          1     170.945 187.838 279.746  1.00  0.00     0.166 HD
HETATM    5  C           1     172.772 187.759 280.729  0.00  0.00     0.077 A 
HETATM    6  C           1     174.127 187.470 280.684  0.00  0.00     0.004 A 
HETATM    7  C           1     174.660 187.002 279.488  0.00  0.00     0.025 A 
ENDROOT
BRANCH   6   8
HETATM    8  C           1     174.993 187.655 281.891  0.00  0.00     0.307 C 
BRANCH   8   9
HETATM    9  N           1     176.033 186.662 281.891  0.00  0.00     0.087 N 
HETATM   10  H           1     175.866 185.995 281.138  0.00  0.00     0.316 HD
BRANCH   9  11
HETATM   11  C           1     175.985 185.979 283.156  0.00  0.00     0.270 C 
BRANCH  11  12
HETATM   12  C           1     174.909 184.903 283.111  0.00  0.00     0.034 C 
BRANCH  12  13
HETATM   13  C           1     174.318 184.717 284.503  0.00  0.00    -0.010 C 
HETATM   14  C           1     175.278 185.298 285.537  0.00  0.00     0.035 C 
HETATM   15  C           1     174.649 185.315 286.929  0.00  0.00     0.272 C 
HETATM   16  N           1     173.374 186.032 286.933  0.00  0.00     0.088 N 
HETATM   17  C           1     172.420 185.433 285.999  0.00  0.00     0.272 C 
HETATM   18  C           1     172.967 185.421 284.572  0.00  0.00     0.035 C 
BRANCH  16  19
HETATM   19  C           1     172.839 185.884 288.259  0.00  0.00     0.268 C 
HETATM   20  C           1     173.968 185.981 289.277  0.00  0.00     0.037 C 
ENDBRANCH  16  19
ENDBRANCH  12  13
ENDBRANCH  11  12
ENDBRANCH   9  11
ENDBRANCH   8   9
ENDBRANCH   6   8
BRANCH   5  21
HETATM   21  S           1     172.081 188.370 282.292  0.00  0.00    -0.107 SA
BRANCH  21  22
HETATM   22  C           1     172.283 190.117 281.846  0.00  0.00     0.122 C 
BRANCH  22  23
HETATM   23  C           1     171.318 190.949 282.632  0.00  0.00    -0.049 A 
HETATM   24  C           1     170.289 190.335 283.346  0.00  0.00     0.008 A 
HETATM   25  C           1     169.390 191.110 284.078  0.00  0.00     0.001 A 
HETATM   26  C           1     169.520 192.499 284.098  0.00  0.00     0.000 A 
HETATM   27  C           1     170.550 193.112 283.385  0.00  0.00     0.001 A 
HETATM   28  C           1     171.449 192.338 282.652  0.00  0.00     0.008 A 
ENDBRANCH  22  23
ENDBRANCH  21  22
ENDBRANCH   5  21
BRANCH   1  29
HETATM   29  C           1     174.304 186.394 277.222  0.00  0.00    -0.024 A 
HETATM   30  C           1     173.439 185.838 276.280  0.00  0.00     0.015 A 
HETATM   31  C           1     173.940 185.370 275.064  0.00  0.00     0.037 A 
HETATM   32  C           1     175.305 185.459 274.791  0.00  0.00     0.068 A 
HETATM   33  C           1     176.170 186.015 275.733  0.00  0.00     0.037 A 
HETATM   34  C           1     175.669 186.483 276.949  0.00  0.00     0.015 A 
BRANCH  32  35
HETATM   35  O           1     175.790 185.005 273.610  0.00  0.00    -0.356 OA
HETATM   36  C           1     174.748 184.764 272.704  0.00  0.00     0.210 C 
ENDBRANCH  32  35
ENDBRANCH   1  29
TORSDOF 11
ENDMDL
MODEL 9
REMARK VINA RESULT:      -6.6      2.739      4.282
REMARK  11 active torsions:
REMARK  status: ('A' for Active; 'I' for Inactive)
REMARK    1  A    between atoms: C_1  and  C_20 
REMARK    2  A    between atoms: C_5  and  S_26 
REMARK    3  A    between atoms: C_6  and  C_8 
REMARK    4  A    between atoms: C_8  and  N_9 
REMARK    5  A    between atoms: N_9  and  C_10 
REMARK    6  A    between atoms: C_10  and  C_11 
REMARK    7  A    between atoms: C_11  and  C_12 
REMARK    8  A    between atoms: N_15  and  C_18 
REMARK    9  A    between atoms: C_23  and  O_34 
REMARK   10  A    between atoms: S_26  and  C_33 
REMARK   11  A    between atoms: C_27  and  C_33 
ROOT
HETATM    1  C           1     175.744 185.188 271.322  0.00  0.00    -0.010 A 
HETATM    2  C           1     176.189 184.034 270.700  0.00  0.00     0.101 A 
HETATM    3  N           1     176.026 183.779 269.383  0.00  0.00    -0.359 N 
ATOM      4  HN          1     176.368 182.917 268.958  1.00  0.00     0.166 HD
HETATM    5  C           1     175.386 184.723 268.659  0.00  0.00     0.077 A 
HETATM    6  C           1     174.905 185.909 269.191  0.00  0.00     0.004 A 
HETATM    7  C           1     175.089 186.143 270.550  0.00  0.00     0.025 A 
ENDROOT
BRANCH   6   8
HETATM    8  C           1     174.205 186.911 268.327  0.00  0.00     0.307 C 
BRANCH   8   9
HETATM    9  N           1     175.159 187.865 267.831  0.00  0.00     0.087 N 
HETATM   10  H           1     176.059 187.715 268.287  0.00  0.00     0.316 HD
BRANCH   9  11
HETATM   11  C           1     174.672 189.180 268.155  0.00  0.00     0.270 C 
BRANCH  11  12
HETATM   12  C           1     175.397 189.701 269.387  0.00  0.00     0.034 C 
BRANCH  12  13
HETATM   13  C           1     174.662 190.918 269.933  0.00  0.00    -0.010 C 
HETATM   14  C           1     173.487 190.451 270.788  0.00  0.00     0.035 C 
HETATM   15  C           1     172.833 191.623 271.517  0.00  0.00     0.272 C 
HETATM   16  N           1     173.806 192.365 272.320  0.00  0.00     0.088 N 
HETATM   17  C           1     174.897 192.883 271.494  0.00  0.00     0.272 C 
HETATM   18  C           1     175.627 191.757 270.764  0.00  0.00     0.035 C 
BRANCH  16  19
HETATM   19  C           1     173.096 193.492 272.862  0.00  0.00     0.268 C 
HETATM   20  C           1     172.226 194.115 271.778  0.00  0.00     0.037 C 
ENDBRANCH  16  19
ENDBRANCH  12  13
ENDBRANCH  11  12
ENDBRANCH   9  11
ENDBRANCH   8   9
ENDBRANCH   6   8
BRANCH   5  21
HETATM   21  S           1     175.145 184.423 266.885  0.00  0.00    -0.107 SA
BRANCH  21  22
HETATM   22  C           1     176.376 183.091 266.814  0.00  0.00     0.122 C 
BRANCH  22  23
HETATM   23  C           1     176.894 182.964 265.415  0.00  0.00    -0.049 A 
HETATM   24  C           1     177.734 181.903 265.076  0.00  0.00     0.008 A 
HETATM   25  C           1     178.216 181.785 263.773  0.00  0.00     0.001 A 
HETATM   26  C           1     177.859 182.726 262.808  0.00  0.00     0.000 A 
HETATM   27  C           1     177.018 183.786 263.147  0.00  0.00     0.001 A 
HETATM   28  C           1     176.536 183.906 264.450  0.00  0.00     0.008 A 
ENDBRANCH  22  23
ENDBRANCH  21  22
ENDBRANCH   5  21
BRANCH   1  29
HETATM   29  C           1     175.936 185.381 272.631  0.00  0.00    -0.024 A 
HETATM   30  C           1     177.037 186.115 273.072  0.00  0.00     0.015 A 
HETATM   31  C           1     177.239 186.317 274.438  0.00  0.00     0.037 A 
HETATM   32  C           1     176.341 185.783 275.362  0.00  0.00     0.068 A 
HETATM   33  C           1     175.240 185.049 274.921  0.00  0.00     0.037 A 
HETATM   34  C           1     175.038 184.848 273.555  0.00  0.00     0.015 A 
BRANCH  32  35
HETATM   35  O           1     176.536 185.980 276.689  0.00  0.00    -0.356 OA
HETATM   36  C           1     177.904 185.971 276.996  0.00  0.00     0.210 C 
ENDBRANCH  32  35
ENDBRANCH   1  29
TORSDOF 11
ENDMDL
