MODEL 1
REMARK VINA RESULT:      -7.2      0.000      0.000
REMARK  8 active torsions:
REMARK  status: ('A' for Active; 'I' for Inactive)
REMARK    1  A    between atoms: C_4  and  S_18 
REMARK    2  A    between atoms: C_5  and  C_7 
REMARK    3  A    between atoms: C_7  and  N_8 
REMARK    4  A    between atoms: N_8  and  C_9 
REMARK    5  A    between atoms: C_9  and  C_10 
REMARK    6  A    between atoms: C_10  and  N_11 
REMARK    7  A    between atoms: S_18  and  C_25 
REMARK    8  A    between atoms: C_19  and  C_25 
ROOT
HETATM    1  C           1     173.555 189.240 283.625  0.00  0.00     0.118 A 
HETATM    2  C           1     172.951 189.646 282.446  0.00  0.00     0.020 A 
HETATM    3  N           1     174.416 188.203 283.711  0.00  0.00    -0.254 NA
HETATM    4  C           1     174.684 187.543 282.563  0.00  0.00     0.101 A 
HETATM    5  C           1     174.131 187.874 281.336  0.00  0.00     0.005 A 
HETATM    6  C           1     173.248 188.947 281.281  0.00  0.00     0.013 A 
ENDROOT
BRANCH   5   7
HETATM    7  C           1     174.474 187.097 280.104  0.00  0.00     0.308 C 
BRANCH   7   8
HETATM    8  N           1     173.331 186.330 279.685  0.00  0.00     0.089 N 
HETATM    9  H           1     173.357 185.413 280.130  0.00  0.00     0.316 HD
BRANCH   8  10
HETATM   10  C           1     173.409 186.173 278.258  0.00  0.00     0.300 C 
BRANCH  10  11
HETATM   11  C           1     174.653 186.877 277.736  0.00  0.00     0.302 C 
BRANCH  11  12
HETATM   12  N           1     174.692 186.783 276.301  0.00  0.00     0.093 N 
HETATM   13  C           1     175.943 187.425 275.863  0.00  0.00     0.302 C 
HETATM   14  C           1     176.254 187.181 274.370  0.00  0.00     0.302 C 
HETATM   15  N           1     176.287 185.751 274.016  0.00  0.00     0.087 N 
HETATM   16  C           1     176.337 185.676 272.581  0.00  0.00     0.310 C 
HETATM   17  C           1     175.035 185.109 274.455  0.00  0.00     0.302 C 
HETATM   18  C           1     174.725 185.353 275.947  0.00  0.00     0.302 C 
ENDBRANCH  11  12
ENDBRANCH  10  11
ENDBRANCH   8  10
ENDBRANCH   7   8
ENDBRANCH   5   7
BRANCH   4  19
HETATM   19  S           1     175.836 186.142 282.631  0.00  0.00    -0.105 SA
BRANCH  19  20
HETATM   20  C           1     174.519 184.903 282.792  0.00  0.00     0.122 C 
BRANCH  20  21
HETATM   21  C           1     174.013 184.892 284.201  0.00  0.00    -0.049 A 
HETATM   22  C           1     172.673 185.174 284.463  0.00  0.00     0.008 A 
HETATM   23  C           1     172.202 185.164 285.776  0.00  0.00     0.001 A 
HETATM   24  C           1     173.072 184.874 286.827  0.00  0.00     0.000 A 
HETATM   25  C           1     174.412 184.592 286.564  0.00  0.00     0.001 A 
HETATM   26  C           1     174.883 184.602 285.252  0.00  0.00     0.008 A 
ENDBRANCH  20  21
ENDBRANCH  19  20
ENDBRANCH   4  19
TORSDOF 8
ENDMDL
MODEL 2
REMARK VINA RESULT:      -7.2      3.330      5.695
REMARK  8 active torsions:
REMARK  status: ('A' for Active; 'I' for Inactive)
REMARK    1  A    between atoms: C_4  and  S_18 
REMARK    2  A    between atoms: C_5  and  C_7 
REMARK    3  A    between atoms: C_7  and  N_8 
REMARK    4  A    between atoms: N_8  and  C_9 
REMARK    5  A    between atoms: C_9  and  C_10 
REMARK    6  A    between atoms: C_10  and  N_11 
REMARK    7  A    between atoms: S_18  and  C_25 
REMARK    8  A    between atoms: C_19  and  C_25 
ROOT
HETATM    1  C           1     175.016 184.334 286.003  0.00  0.00     0.118 A 
HETATM    2  C           1     174.867 184.601 284.651  0.00  0.00     0.020 A 
HETATM    3  N           1     174.443 185.067 286.982  0.00  0.00    -0.254 NA
HETATM    4  C           1     173.686 186.114 286.588  0.00  0.00     0.101 A 
HETATM    5  C           1     173.478 186.461 285.263  0.00  0.00     0.005 A 
HETATM    6  C           1     174.081 185.686 284.278  0.00  0.00     0.013 A 
ENDROOT
BRANCH   5   7
HETATM    7  C           1     172.626 187.637 284.900  0.00  0.00     0.308 C 
BRANCH   7   8
HETATM    8  N           1     173.431 188.628 284.239  0.00  0.00     0.089 N 
HETATM    9  H           1     173.348 189.517 284.733  0.00  0.00     0.316 HD
BRANCH   8  10
HETATM   10  C           1     172.931 188.776 282.900  0.00  0.00     0.300 C 
BRANCH  10  11
HETATM   11  C           1     174.055 188.518 281.905  0.00  0.00     0.302 C 
BRANCH  11  12
HETATM   12  N           1     173.497 188.101 280.648  0.00  0.00     0.093 N 
HETATM   13  C           1     174.547 187.345 279.942  0.00  0.00     0.302 C 
HETATM   14  C           1     174.023 186.613 278.689  0.00  0.00     0.302 C 
HETATM   15  N           1     172.888 185.720 278.977  0.00  0.00     0.087 N 
HETATM   16  C           1     172.351 185.303 277.710  0.00  0.00     0.310 C 
HETATM   17  C           1     171.837 186.475 279.683  0.00  0.00     0.302 C 
HETATM   18  C           1     172.361 187.207 280.936  0.00  0.00     0.302 C 
ENDBRANCH  11  12
ENDBRANCH  10  11
ENDBRANCH   8  10
ENDBRANCH   7   8
ENDBRANCH   5   7
BRANCH   4  19
HETATM   19  S           1     172.896 187.128 287.871  0.00  0.00    -0.105 SA
BRANCH  19  20
HETATM   20  C           1     173.405 186.035 289.228  0.00  0.00     0.122 C 
BRANCH  20  21
HETATM   21  C           1     172.710 186.447 290.488  0.00  0.00    -0.049 A 
HETATM   22  C           1     172.044 187.670 290.549  0.00  0.00     0.008 A 
HETATM   23  C           1     171.397 188.054 291.724  0.00  0.00     0.001 A 
HETATM   24  C           1     171.418 187.215 292.838  0.00  0.00     0.000 A 
HETATM   25  C           1     172.085 185.991 292.776  0.00  0.00     0.001 A 
HETATM   26  C           1     172.731 185.607 291.602  0.00  0.00     0.008 A 
ENDBRANCH  20  21
ENDBRANCH  19  20
ENDBRANCH   4  19
TORSDOF 8
ENDMDL
MODEL 3
REMARK VINA RESULT:      -6.8      4.532     11.357
REMARK  8 active torsions:
REMARK  status: ('A' for Active; 'I' for Inactive)
REMARK    1  A    between atoms: C_4  and  S_18 
REMARK    2  A    between atoms: C_5  and  C_7 
REMARK    3  A    between atoms: C_7  and  N_8 
REMARK    4  A    between atoms: N_8  and  C_9 
REMARK    5  A    between atoms: C_9  and  C_10 
REMARK    6  A    between atoms: C_10  and  N_11 
REMARK    7  A    between atoms: S_18  and  C_25 
REMARK    8  A    between atoms: C_19  and  C_25 
ROOT
HETATM    1  C           1     174.880 184.519 284.993  0.00  0.00     0.118 A 
HETATM    2  C           1     175.111 184.561 286.358  0.00  0.00     0.020 A 
HETATM    3  N           1     174.070 185.381 284.341  0.00  0.00    -0.254 NA
HETATM    4  C           1     173.467 186.329 285.091  0.00  0.00     0.101 A 
HETATM    5  C           1     173.636 186.452 286.460  0.00  0.00     0.005 A 
HETATM    6  C           1     174.476 185.549 287.103  0.00  0.00     0.013 A 
ENDROOT
BRANCH   5   7
HETATM    7  C           1     172.934 187.528 287.228  0.00  0.00     0.308 C 
BRANCH   7   8
HETATM    8  N           1     173.337 187.476 288.608  0.00  0.00     0.089 N 
HETATM    9  H           1     174.014 186.723 288.735  0.00  0.00     0.316 HD
BRANCH   8  10
HETATM   10  C           1     172.166 187.204 289.396  0.00  0.00     0.300 C 
BRANCH  10  11
HETATM   11  C           1     172.313 185.849 290.075  0.00  0.00     0.302 C 
BRANCH  11  12
HETATM   12  N           1     171.446 185.789 291.220  0.00  0.00     0.093 N 
HETATM   13  C           1     171.895 186.837 292.154  0.00  0.00     0.302 C 
HETATM   14  C           1     170.908 187.069 293.318  0.00  0.00     0.302 C 
HETATM   15  N           1     169.541 187.374 292.861  0.00  0.00     0.087 N 
HETATM   16  C           1     168.691 187.322 294.020  0.00  0.00     0.310 C 
HETATM   17  C           1     169.092 186.326 291.927  0.00  0.00     0.302 C 
HETATM   18  C           1     170.078 186.094 290.763  0.00  0.00     0.302 C 
ENDBRANCH  11  12
ENDBRANCH  10  11
ENDBRANCH   8  10
ENDBRANCH   7   8
ENDBRANCH   5   7
BRANCH   4  19
HETATM   19  S           1     172.369 187.510 284.256  0.00  0.00    -0.105 SA
BRANCH  19  20
HETATM   20  C           1     173.689 188.196 283.215  0.00  0.00     0.122 C 
BRANCH  20  21
HETATM   21  C           1     173.606 187.597 281.845  0.00  0.00    -0.049 A 
HETATM   22  C           1     172.461 186.905 281.455  0.00  0.00     0.008 A 
HETATM   23  C           1     172.385 186.348 280.178  0.00  0.00     0.001 A 
HETATM   24  C           1     173.454 186.483 279.292  0.00  0.00     0.000 A 
HETATM   25  C           1     174.599 187.176 279.684  0.00  0.00     0.001 A 
HETATM   26  C           1     174.676 187.733 280.960  0.00  0.00     0.008 A 
ENDBRANCH  20  21
ENDBRANCH  19  20
ENDBRANCH   4  19
TORSDOF 8
ENDMDL
MODEL 4
REMARK VINA RESULT:      -6.8      2.708      9.981
REMARK  8 active torsions:
REMARK  status: ('A' for Active; 'I' for Inactive)
REMARK    1  A    between atoms: C_4  and  S_18 
REMARK    2  A    between atoms: C_5  and  C_7 
REMARK    3  A    between atoms: C_7  and  N_8 
REMARK    4  A    between atoms: N_8  and  C_9 
REMARK    5  A    between atoms: C_9  and  C_10 
REMARK    6  A    between atoms: C_10  and  N_11 
REMARK    7  A    between atoms: S_18  and  C_25 
REMARK    8  A    between atoms: C_19  and  C_25 
ROOT
HETATM    1  C           1     178.159 186.316 274.770  0.00  0.00     0.118 A 
HETATM    2  C           1     178.050 185.833 276.064  0.00  0.00     0.020 A 
HETATM    3  N           1     177.103 186.525 273.954  0.00  0.00    -0.254 NA
HETATM    4  C           1     175.883 186.238 274.458  0.00  0.00     0.101 A 
HETATM    5  C           1     175.673 185.752 275.739  0.00  0.00     0.005 A 
HETATM    6  C           1     176.780 185.548 276.555  0.00  0.00     0.013 A 
ENDROOT
BRANCH   5   7
HETATM    7  C           1     174.291 185.455 276.231  0.00  0.00     0.308 C 
BRANCH   7   8
HETATM    8  N           1     173.761 186.611 276.903  0.00  0.00     0.089 N 
HETATM    9  H           1     174.405 187.395 276.788  0.00  0.00     0.316 HD
BRANCH   8  10
HETATM   10  C           1     173.642 186.290 278.299  0.00  0.00     0.300 C 
BRANCH  10  11
HETATM   11  C           1     174.578 187.178 279.107  0.00  0.00     0.302 C 
BRANCH  11  12
HETATM   12  N           1     174.427 186.888 280.507  0.00  0.00     0.093 N 
HETATM   13  C           1     174.420 188.180 281.215  0.00  0.00     0.302 C 
HETATM   14  C           1     174.011 188.051 282.698  0.00  0.00     0.302 C 
HETATM   15  N           1     172.708 187.386 282.879  0.00  0.00     0.087 N 
HETATM   16  C           1     172.569 187.114 284.285  0.00  0.00     0.310 C 
HETATM   17  C           1     172.715 186.094 282.171  0.00  0.00     0.302 C 
HETATM   18  C           1     173.125 186.222 280.688  0.00  0.00     0.302 C 
ENDBRANCH  11  12
ENDBRANCH  10  11
ENDBRANCH   8  10
ENDBRANCH   7   8
ENDBRANCH   5   7
BRANCH   4  19
HETATM   19  S           1     174.435 186.503 273.396  0.00  0.00    -0.105 SA
BRANCH  19  20
HETATM   20  C           1     175.404 186.517 271.861  0.00  0.00     0.122 C 
BRANCH  20  21
HETATM   21  C           1     175.551 185.117 271.352  0.00  0.00    -0.049 A 
HETATM   22  C           1     174.600 184.152 271.679  0.00  0.00     0.008 A 
HETATM   23  C           1     174.738 182.847 271.204  0.00  0.00     0.001 A 
HETATM   24  C           1     175.828 182.508 270.402  0.00  0.00     0.000 A 
HETATM   25  C           1     176.779 183.475 270.075  0.00  0.00     0.001 A 
HETATM   26  C           1     176.642 184.779 270.550  0.00  0.00     0.008 A 
ENDBRANCH  20  21
ENDBRANCH  19  20
ENDBRANCH   4  19
TORSDOF 8
ENDMDL
MODEL 5
REMARK VINA RESULT:      -6.7      2.295      8.715
REMARK  8 active torsions:
REMARK  status: ('A' for Active; 'I' for Inactive)
REMARK    1  A    between atoms: C_4  and  S_18 
REMARK    2  A    between atoms: C_5  and  C_7 
REMARK    3  A    between atoms: C_7  and  N_8 
REMARK    4  A    between atoms: N_8  and  C_9 
REMARK    5  A    between atoms: C_9  and  C_10 
REMARK    6  A    between atoms: C_10  and  N_11 
REMARK    7  A    between atoms: S_18  and  C_25 
REMARK    8  A    between atoms: C_19  and  C_25 
ROOT
HETATM    1  C           1     170.635 186.825 276.380  0.00  0.00     0.118 A 
HETATM    2  C           1     169.798 187.096 277.451  0.00  0.00     0.020 A 
HETATM    3  N           1     171.977 186.708 276.486  0.00  0.00    -0.254 NA
HETATM    4  C           1     172.502 186.868 277.720  0.00  0.00     0.101 A 
HETATM    5  C           1     171.748 187.140 278.850  0.00  0.00     0.005 A 
HETATM    6  C           1     170.369 187.255 278.709  0.00  0.00     0.013 A 
ENDROOT
BRANCH   5   7
HETATM    7  C           1     172.399 187.306 280.188  0.00  0.00     0.308 C 
BRANCH   7   8
HETATM    8  N           1     172.353 186.059 280.903  0.00  0.00     0.089 N 
HETATM    9  H           1     171.684 186.133 281.670  0.00  0.00     0.316 HD
BRANCH   8  10
HETATM   10  C           1     173.665 185.810 281.434  0.00  0.00     0.300 C 
BRANCH  10  11
HETATM   11  C           1     174.199 187.077 282.088  0.00  0.00     0.302 C 
BRANCH  11  12
HETATM   12  N           1     174.434 186.835 283.485  0.00  0.00     0.093 N 
HETATM   13  C           1     173.175 187.134 284.190  0.00  0.00     0.302 C 
HETATM   14  C           1     173.189 186.680 285.665  0.00  0.00     0.302 C 
HETATM   15  N           1     173.511 185.251 285.824  0.00  0.00     0.087 N 
HETATM   16  C           1     173.731 185.024 287.227  0.00  0.00     0.310 C 
HETATM   17  C           1     174.770 184.951 285.119  0.00  0.00     0.302 C 
HETATM   18  C           1     174.756 185.406 283.644  0.00  0.00     0.302 C 
ENDBRANCH  11  12
ENDBRANCH  10  11
ENDBRANCH   8  10
ENDBRANCH   7   8
ENDBRANCH   5   7
BRANCH   4  19
HETATM   19  S           1     174.302 186.719 277.910  0.00  0.00    -0.105 SA
BRANCH  19  20
HETATM   20  C           1     174.480 185.563 276.522  0.00  0.00     0.122 C 
BRANCH  20  21
HETATM   21  C           1     175.779 185.818 275.823  0.00  0.00    -0.049 A 
HETATM   22  C           1     176.979 185.734 276.529  0.00  0.00     0.008 A 
HETATM   23  C           1     178.189 185.972 275.877  0.00  0.00     0.001 A 
HETATM   24  C           1     178.199 186.295 274.520  0.00  0.00     0.000 A 
HETATM   25  C           1     176.999 186.378 273.815  0.00  0.00     0.001 A 
HETATM   26  C           1     175.789 186.140 274.466  0.00  0.00     0.008 A 
ENDBRANCH  20  21
ENDBRANCH  19  20
ENDBRANCH   4  19
TORSDOF 8
ENDMDL
MODEL 6
REMARK VINA RESULT:      -6.7      4.657      7.987
REMARK  8 active torsions:
REMARK  status: ('A' for Active; 'I' for Inactive)
REMARK    1  A    between atoms: C_4  and  S_18 
REMARK    2  A    between atoms: C_5  and  C_7 
REMARK    3  A    between atoms: C_7  and  N_8 
REMARK    4  A    between atoms: N_8  and  C_9 
REMARK    5  A    between atoms: C_9  and  C_10 
REMARK    6  A    between atoms: C_10  and  N_11 
REMARK    7  A    between atoms: S_18  and  C_25 
REMARK    8  A    between atoms: C_19  and  C_25 
ROOT
HETATM    1  C           1     168.231 188.485 287.426  0.00  0.00     0.118 A 
HETATM    2  C           1     169.371 188.940 286.783  0.00  0.00     0.020 A 
HETATM    3  N           1     168.164 187.316 288.100  0.00  0.00    -0.254 NA
HETATM    4  C           1     169.290 186.570 288.131  0.00  0.00     0.101 A 
HETATM    5  C           1     170.477 186.940 287.520  0.00  0.00     0.005 A 
HETATM    6  C           1     170.515 188.149 286.833  0.00  0.00     0.013 A 
ENDROOT
BRANCH   5   7
HETATM    7  C           1     171.687 186.062 287.595  0.00  0.00     0.308 C 
BRANCH   7   8
HETATM    8  N           1     172.874 186.870 287.507  0.00  0.00     0.089 N 
HETATM    9  H           1     172.629 187.794 287.150  0.00  0.00     0.316 HD
BRANCH   8  10
HETATM   10  C           1     173.775 186.226 286.591  0.00  0.00     0.300 C 
BRANCH  10  11
HETATM   11  C           1     173.028 185.148 285.816  0.00  0.00     0.302 C 
BRANCH  11  12
HETATM   12  N           1     173.364 185.240 284.421  0.00  0.00     0.093 N 
HETATM   13  C           1     172.727 186.464 283.905  0.00  0.00     0.302 C 
HETATM   14  C           1     173.203 186.838 282.485  0.00  0.00     0.302 C 
HETATM   15  N           1     174.667 186.969 282.385  0.00  0.00     0.087 N 
HETATM   16  C           1     174.983 187.071 280.986  0.00  0.00     0.310 C 
HETATM   17  C           1     175.304 185.744 282.900  0.00  0.00     0.302 C 
HETATM   18  C           1     174.829 185.370 284.320  0.00  0.00     0.302 C 
ENDBRANCH  11  12
ENDBRANCH  10  11
ENDBRANCH   8  10
ENDBRANCH   7   8
ENDBRANCH   5   7
BRANCH   4  19
HETATM   19  S           1     169.245 184.991 289.025  0.00  0.00    -0.105 SA
BRANCH  19  20
HETATM   20  C           1     168.703 185.744 290.585  0.00  0.00     0.122 C 
BRANCH  20  21
HETATM   21  C           1     169.896 186.031 291.443  0.00  0.00    -0.049 A 
HETATM   22  C           1     171.114 185.409 291.172  0.00  0.00     0.008 A 
HETATM   23  C           1     172.226 185.677 291.972  0.00  0.00     0.001 A 
HETATM   24  C           1     172.119 186.566 293.042  0.00  0.00     0.000 A 
HETATM   25  C           1     170.899 187.187 293.311  0.00  0.00     0.001 A 
HETATM   26  C           1     169.788 186.920 292.512  0.00  0.00     0.008 A 
ENDBRANCH  20  21
ENDBRANCH  19  20
ENDBRANCH   4  19
TORSDOF 8
ENDMDL
MODEL 7
REMARK VINA RESULT:      -6.7      1.373      2.027
REMARK  8 active torsions:
REMARK  status: ('A' for Active; 'I' for Inactive)
REMARK    1  A    between atoms: C_4  and  S_18 
REMARK    2  A    between atoms: C_5  and  C_7 
REMARK    3  A    between atoms: C_7  and  N_8 
REMARK    4  A    between atoms: N_8  and  C_9 
REMARK    5  A    between atoms: C_9  and  C_10 
REMARK    6  A    between atoms: C_10  and  N_11 
REMARK    7  A    between atoms: S_18  and  C_25 
REMARK    8  A    between atoms: C_19  and  C_25 
ROOT
HETATM    1  C           1     173.527 189.090 283.792  0.00  0.00     0.118 A 
HETATM    2  C           1     173.779 189.466 282.483  0.00  0.00     0.020 A 
HETATM    3  N           1     173.312 187.814 284.180  0.00  0.00    -0.254 NA
HETATM    4  C           1     173.354 186.873 283.212  0.00  0.00     0.101 A 
HETATM    5  C           1     173.600 187.150 281.877  0.00  0.00     0.005 A 
HETATM    6  C           1     173.817 188.474 281.509  0.00  0.00     0.013 A 
ENDROOT
BRANCH   5   7
HETATM    7  C           1     173.631 186.055 280.857  0.00  0.00     0.308 C 
BRANCH   7   8
HETATM    8  N           1     172.374 186.011 280.160  0.00  0.00     0.089 N 
HETATM    9  H           1     171.732 185.394 280.657  0.00  0.00     0.316 HD
BRANCH   8  10
HETATM   10  C           1     172.621 185.487 278.844  0.00  0.00     0.300 C 
BRANCH  10  11
HETATM   11  C           1     173.297 186.551 277.991  0.00  0.00     0.302 C 
BRANCH  11  12
HETATM   12  N           1     174.105 185.917 276.984  0.00  0.00     0.093 N 
HETATM   13  C           1     173.392 186.067 275.704  0.00  0.00     0.302 C 
HETATM   14  C           1     174.249 185.663 274.486  0.00  0.00     0.302 C 
HETATM   15  N           1     175.531 186.387 274.419  0.00  0.00     0.087 N 
HETATM   16  C           1     176.320 185.748 273.401  0.00  0.00     0.310 C 
HETATM   17  C           1     176.245 186.237 275.700  0.00  0.00     0.302 C 
HETATM   18  C           1     175.387 186.641 276.918  0.00  0.00     0.302 C 
ENDBRANCH  11  12
ENDBRANCH  10  11
ENDBRANCH   8  10
ENDBRANCH   7   8
ENDBRANCH   5   7
BRANCH   4  19
HETATM   19  S           1     173.072 185.144 283.688  0.00  0.00    -0.105 SA
BRANCH  19  20
HETATM   20  C           1     174.439 185.116 284.882  0.00  0.00     0.122 C 
BRANCH  20  21
HETATM   21  C           1     173.898 185.307 286.265  0.00  0.00    -0.049 A 
HETATM   22  C           1     174.753 185.672 287.304  0.00  0.00     0.008 A 
HETATM   23  C           1     174.247 185.850 288.592  0.00  0.00     0.001 A 
HETATM   24  C           1     172.888 185.661 288.841  0.00  0.00     0.000 A 
HETATM   25  C           1     172.033 185.296 287.800  0.00  0.00     0.001 A 
HETATM   26  C           1     172.538 185.118 286.513  0.00  0.00     0.008 A 
ENDBRANCH  20  21
ENDBRANCH  19  20
ENDBRANCH   4  19
TORSDOF 8
ENDMDL
MODEL 8
REMARK VINA RESULT:      -6.7      7.457     10.769
REMARK  8 active torsions:
REMARK  status: ('A' for Active; 'I' for Inactive)
REMARK    1  A    between atoms: C_4  and  S_18 
REMARK    2  A    between atoms: C_5  and  C_7 
REMARK    3  A    between atoms: C_7  and  N_8 
REMARK    4  A    between atoms: N_8  and  C_9 
REMARK    5  A    between atoms: C_9  and  C_10 
REMARK    6  A    between atoms: C_10  and  N_11 
REMARK    7  A    between atoms: S_18  and  C_25 
REMARK    8  A    between atoms: C_19  and  C_25 
ROOT
HETATM    1  C           1     176.141 182.625 270.185  0.00  0.00     0.118 A 
HETATM    2  C           1     175.723 182.670 268.864  0.00  0.00     0.020 A 
HETATM    3  N           1     176.007 183.653 271.052  0.00  0.00    -0.254 NA
HETATM    4  C           1     175.425 184.774 270.574  0.00  0.00     0.101 A 
HETATM    5  C           1     174.974 184.915 269.271  0.00  0.00     0.005 A 
HETATM    6  C           1     175.127 183.839 268.403  0.00  0.00     0.013 A 
ENDROOT
BRANCH   5   7
HETATM    7  C           1     174.339 186.189 268.811  0.00  0.00     0.308 C 
BRANCH   7   8
HETATM    8  N           1     175.294 186.958 268.058  0.00  0.00     0.089 N 
HETATM    9  H           1     176.225 186.822 268.453  0.00  0.00     0.316 HD
BRANCH   8  10
HETATM   10  C           1     174.925 188.343 268.167  0.00  0.00     0.300 C 
BRANCH  10  11
HETATM   11  C           1     173.853 188.502 269.237  0.00  0.00     0.302 C 
BRANCH  11  12
HETATM   12  N           1     174.308 189.427 270.239  0.00  0.00     0.093 N 
HETATM   13  C           1     175.100 190.457 269.544  0.00  0.00     0.302 C 
HETATM   14  C           1     175.445 191.661 270.446  0.00  0.00     0.302 C 
HETATM   15  N           1     174.255 192.285 271.052  0.00  0.00     0.087 N 
HETATM   16  C           1     174.729 193.214 272.043  0.00  0.00     0.310 C 
HETATM   17  C           1     173.464 191.254 271.748  0.00  0.00     0.302 C 
HETATM   18  C           1     173.119 190.050 270.846  0.00  0.00     0.302 C 
ENDBRANCH  11  12
ENDBRANCH  10  11
ENDBRANCH   8  10
ENDBRANCH   7   8
ENDBRANCH   5   7
BRANCH   4  19
HETATM   19  S           1     175.223 186.180 271.705  0.00  0.00    -0.105 SA
BRANCH  19  20
HETATM   20  C           1     174.901 185.134 273.153  0.00  0.00     0.122 C 
BRANCH  20  21
HETATM   21  C           1     175.940 185.395 274.198  0.00  0.00    -0.049 A 
HETATM   22  C           1     177.078 186.134 273.881  0.00  0.00     0.008 A 
HETATM   23  C           1     178.046 186.377 274.857  0.00  0.00     0.001 A 
HETATM   24  C           1     177.875 185.879 276.148  0.00  0.00     0.000 A 
HETATM   25  C           1     176.736 185.139 276.464  0.00  0.00     0.001 A 
HETATM   26  C           1     175.768 184.896 275.490  0.00  0.00     0.008 A 
ENDBRANCH  20  21
ENDBRANCH  19  20
ENDBRANCH   4  19
TORSDOF 8
ENDMDL
MODEL 9
REMARK VINA RESULT:      -6.6      4.526     10.615
REMARK  8 active torsions:
REMARK  status: ('A' for Active; 'I' for Inactive)
REMARK    1  A    between atoms: C_4  and  S_18 
REMARK    2  A    between atoms: C_5  and  C_7 
REMARK    3  A    between atoms: C_7  and  N_8 
REMARK    4  A    between atoms: N_8  and  C_9 
REMARK    5  A    between atoms: C_9  and  C_10 
REMARK    6  A    between atoms: C_10  and  N_11 
REMARK    7  A    between atoms: S_18  and  C_25 
REMARK    8  A    between atoms: C_19  and  C_25 
ROOT
HETATM    1  C           1     173.885 185.454 281.873  0.00  0.00     0.118 A 
HETATM    2  C           1     174.548 184.506 282.637  0.00  0.00     0.020 A 
HETATM    3  N           1     173.264 186.536 282.390  0.00  0.00    -0.254 NA
HETATM    4  C           1     173.311 186.676 283.733  0.00  0.00     0.101 A 
HETATM    5  C           1     173.949 185.783 284.580  0.00  0.00     0.005 A 
HETATM    6  C           1     174.579 184.678 284.017  0.00  0.00     0.013 A 
ENDROOT
BRANCH   5   7
HETATM    7  C           1     173.960 186.002 286.060  0.00  0.00     0.308 C 
BRANCH   7   8
HETATM    8  N           1     173.258 184.928 286.710  0.00  0.00     0.089 N 
HETATM    9  H           1     172.449 184.662 286.147  0.00  0.00     0.316 HD
BRANCH   8  10
HETATM   10  C           1     172.814 185.406 287.991  0.00  0.00     0.300 C 
BRANCH  10  11
HETATM   11  C           1     173.954 186.139 288.684  0.00  0.00     0.302 C 
BRANCH  11  12
HETATM   12  N           1     173.511 186.614 289.966  0.00  0.00     0.093 N 
HETATM   13  C           1     172.337 187.470 289.725  0.00  0.00     0.302 C 
HETATM   14  C           1     171.593 187.851 291.023  0.00  0.00     0.302 C 
HETATM   15  N           1     171.188 186.679 291.818  0.00  0.00     0.087 N 
HETATM   16  C           1     170.738 187.173 293.092  0.00  0.00     0.310 C 
HETATM   17  C           1     172.363 185.822 292.060  0.00  0.00     0.302 C 
HETATM   18  C           1     173.107 185.441 290.763  0.00  0.00     0.302 C 
ENDBRANCH  11  12
ENDBRANCH  10  11
ENDBRANCH   8  10
ENDBRANCH   7   8
ENDBRANCH   5   7
BRANCH   4  19
HETATM   19  S           1     172.490 188.117 284.472  0.00  0.00    -0.105 SA
BRANCH  19  20
HETATM   20  C           1     173.310 189.307 283.373  0.00  0.00     0.122 C 
BRANCH  20  21
HETATM   21  C           1     172.278 190.164 282.707  0.00  0.00    -0.049 A 
HETATM   22  C           1     170.932 190.017 283.036  0.00  0.00     0.008 A 
HETATM   23  C           1     169.971 190.816 282.415  0.00  0.00     0.001 A 
HETATM   24  C           1     170.358 191.761 281.465  0.00  0.00     0.000 A 
HETATM   25  C           1     171.706 191.907 281.137  0.00  0.00     0.001 A 
HETATM   26  C           1     172.666 191.109 281.757  0.00  0.00     0.008 A 
ENDBRANCH  20  21
ENDBRANCH  19  20
ENDBRANCH   4  19
TORSDOF 8
ENDMDL
