MODEL 1
REMARK VINA RESULT:      -8.4      0.000      0.000
REMARK  9 active torsions:
REMARK  status: ('A' for Active; 'I' for Inactive)
REMARK    1  A    between atoms: N2_7  and  C6_8 
REMARK    2  A    between atoms: C6_8  and  C7_9 
REMARK    3  A    between atoms: C7_9  and  N3_10 
REMARK    4  A    between atoms: N3_10  and  C8_11 
REMARK    5  A    between atoms: C8_11  and  C9_12 
REMARK    6  A    between atoms: C13_16  and  C14_17 
REMARK    7  A    between atoms: C23_27  and  S1_28 
REMARK    8  A    between atoms: S1_28  and  C24_29 
REMARK    9  A    between atoms: C24_29  and  C25_30 
ROOT
HETATM    1  C9  UNL     1     171.875 186.482 278.465  1.00  0.00     0.006 A 
HETATM    2  C10 UNL     1     171.782 186.129 279.824  1.00  0.00     0.025 A 
HETATM    3  C11 UNL     1     172.908 186.203 280.653  1.00  0.00    -0.006 A 
HETATM    4  C12 UNL     1     172.835 185.867 282.013  1.00  0.00     0.026 A 
HETATM    5  C13 UNL     1     173.979 185.953 282.832  1.00  0.00    -0.025 A 
HETATM    6  C20 UNL     1     175.192 186.387 282.266  1.00  0.00     0.014 A 
HETATM    7  C21 UNL     1     175.268 186.714 280.910  1.00  0.00     0.033 A 
HETATM    8  C22 UNL     1     174.133 186.621 280.100  1.00  0.00     0.068 A 
HETATM    9  N4  UNL     1     174.209 186.943 278.783  1.00  0.00    -0.241 NA
HETATM   10  C23 UNL     1     173.129 186.896 277.958  1.00  0.00     0.102 A 
ENDROOT
BRANCH   1  11
HETATM   11  C8  UNL     1     170.636 186.409 277.601  1.00  0.00     0.311 C 
BRANCH  11  12
HETATM   12  N3  UNL     1     169.514 187.144 278.198  1.00  0.00     0.089 N 
HETATM   13  H16 UNL     1     168.670 186.958 277.606  1.00  0.00     0.316 HD
BRANCH  12  14
HETATM   14  C7  UNL     1     169.752 188.594 278.207  1.00  0.00     0.300 C 
BRANCH  14  15
HETATM   15  C6  UNL     1     168.865 189.258 279.261  1.00  0.00     0.302 C 
BRANCH  15  16
HETATM   16  N2  UNL     1     169.679 190.166 280.099  1.00  0.00     0.093 N 
HETATM   17  C3  UNL     1     170.998 189.589 280.415  1.00  0.00     0.302 C 
HETATM   18  C2  UNL     1     171.853 190.637 281.136  1.00  0.00     0.302 C 
HETATM   19  N1  UNL     1     171.168 191.251 282.306  1.00  0.00     0.087 N 
HETATM   20  C1  UNL     1     171.142 192.723 282.216  1.00  0.00     0.310 C 
HETATM   21  C4  UNL     1     169.818 190.706 282.570  1.00  0.00     0.302 C 
HETATM   22  C5  UNL     1     168.948 190.660 281.296  1.00  0.00     0.302 C 
ENDBRANCH  15  16
ENDBRANCH  14  15
ENDBRANCH  12  14
ENDBRANCH  11  12
ENDBRANCH   1  11
BRANCH  10  23
HETATM   23  S1  UNL     1     173.368 187.354 276.233  1.00  0.00    -0.105 SA
BRANCH  23  24
HETATM   24  C24 UNL     1     174.087 185.749 275.738  1.00  0.00     0.119 C 
BRANCH  24  25
HETATM   25  C25 UNL     1     175.549 185.898 275.427  1.00  0.00    -0.049 A 
HETATM   26  C26 UNL     1     175.970 186.326 274.157  1.00  0.00     0.008 A 
HETATM   27  C27 UNL     1     177.333 186.473 273.880  1.00  0.00     0.001 A 
HETATM   28  C28 UNL     1     178.283 186.192 274.866  1.00  0.00     0.000 A 
HETATM   29  C29 UNL     1     177.870 185.757 276.130  1.00  0.00     0.001 A 
HETATM   30  C30 UNL     1     176.510 185.612 276.411  1.00  0.00     0.008 A 
ENDBRANCH  24  25
ENDBRANCH  23  24
ENDBRANCH  10  23
BRANCH   5  31
HETATM   31  C14 UNL     1     173.907 185.598 284.275  1.00  0.00    -0.026 A 
HETATM   32  C15 UNL     1     172.667 185.505 284.931  1.00  0.00     0.012 A 
HETATM   33  C16 UNL     1     172.607 185.185 286.291  1.00  0.00     0.001 A 
HETATM   34  C17 UNL     1     173.781 184.957 287.012  1.00  0.00     0.000 A 
HETATM   35  C18 UNL     1     175.018 185.033 286.369  1.00  0.00     0.001 A 
HETATM   36  C19 UNL     1     175.083 185.364 285.012  1.00  0.00     0.012 A 
ENDBRANCH   5  31
TORSDOF 9
ENDMDL
MODEL 2
REMARK VINA RESULT:      -8.2      2.146      2.941
REMARK  9 active torsions:
REMARK  status: ('A' for Active; 'I' for Inactive)
REMARK    1  A    between atoms: N2_7  and  C6_8 
REMARK    2  A    between atoms: C6_8  and  C7_9 
REMARK    3  A    between atoms: C7_9  and  N3_10 
REMARK    4  A    between atoms: N3_10  and  C8_11 
REMARK    5  A    between atoms: C8_11  and  C9_12 
REMARK    6  A    between atoms: C13_16  and  C14_17 
REMARK    7  A    between atoms: C23_27  and  S1_28 
REMARK    8  A    between atoms: S1_28  and  C24_29 
REMARK    9  A    between atoms: C24_29  and  C25_30 
ROOT
HETATM    1  C9  UNL     1     171.862 186.446 278.253  1.00  0.00     0.006 A 
HETATM    2  C10 UNL     1     171.764 186.078 279.607  1.00  0.00     0.025 A 
HETATM    3  C11 UNL     1     172.873 186.195 280.453  1.00  0.00    -0.006 A 
HETATM    4  C12 UNL     1     172.794 185.844 281.810  1.00  0.00     0.026 A 
HETATM    5  C13 UNL     1     173.921 185.974 282.647  1.00  0.00    -0.025 A 
HETATM    6  C20 UNL     1     175.121 186.467 282.103  1.00  0.00     0.014 A 
HETATM    7  C21 UNL     1     175.203 186.809 280.751  1.00  0.00     0.033 A 
HETATM    8  C22 UNL     1     174.086 186.672 279.923  1.00  0.00     0.068 A 
HETATM    9  N4  UNL     1     174.168 187.008 278.610  1.00  0.00    -0.241 NA
HETATM   10  C23 UNL     1     173.103 186.921 277.768  1.00  0.00     0.102 A 
ENDROOT
BRANCH   1  11
HETATM   11  C8  UNL     1     170.640 186.325 277.369  1.00  0.00     0.311 C 
BRANCH  11  12
HETATM   12  N3  UNL     1     169.498 187.065 277.918  1.00  0.00     0.089 N 
HETATM   13  H16 UNL     1     168.656 186.804 277.351  1.00  0.00     0.316 HD
BRANCH  12  14
HETATM   14  C7  UNL     1     169.684 188.518 277.810  1.00  0.00     0.300 C 
BRANCH  14  15
HETATM   15  C6  UNL     1     169.771 188.922 276.337  1.00  0.00     0.302 C 
BRANCH  15  16
HETATM   16  N2  UNL     1     170.629 190.119 276.197  1.00  0.00     0.093 N 
HETATM   17  C3  UNL     1     170.065 191.287 276.899  1.00  0.00     0.302 C 
HETATM   18  C2  UNL     1     171.073 192.440 276.861  1.00  0.00     0.302 C 
HETATM   19  N1  UNL     1     171.570 192.742 275.491  1.00  0.00     0.087 N 
HETATM   20  C1  UNL     1     173.044 192.714 275.423  1.00  0.00     0.310 C 
HETATM   21  C4  UNL     1     170.968 191.904 274.432  1.00  0.00     0.302 C 
HETATM   22  C5  UNL     1     171.003 190.402 274.786  1.00  0.00     0.302 C 
ENDBRANCH  15  16
ENDBRANCH  14  15
ENDBRANCH  12  14
ENDBRANCH  11  12
ENDBRANCH   1  11
BRANCH  10  23
HETATM   23  S1  UNL     1     173.348 187.403 276.050  1.00  0.00    -0.105 SA
BRANCH  23  24
HETATM   24  C24 UNL     1     174.053 185.800 275.531  1.00  0.00     0.119 C 
BRANCH  24  25
HETATM   25  C25 UNL     1     175.532 185.924 275.299  1.00  0.00    -0.049 A 
HETATM   26  C26 UNL     1     176.028 186.348 274.056  1.00  0.00     0.008 A 
HETATM   27  C27 UNL     1     177.408 186.472 273.853  1.00  0.00     0.001 A 
HETATM   28  C28 UNL     1     178.298 186.170 274.888  1.00  0.00     0.000 A 
HETATM   29  C29 UNL     1     177.810 185.740 276.126  1.00  0.00     0.001 A 
HETATM   30  C30 UNL     1     176.433 185.619 276.333  1.00  0.00     0.008 A 
ENDBRANCH  24  25
ENDBRANCH  23  24
ENDBRANCH  10  23
BRANCH   5  31
HETATM   31  C14 UNL     1     173.844 185.604 284.085  1.00  0.00    -0.026 A 
HETATM   32  C15 UNL     1     175.013 185.379 284.834  1.00  0.00     0.012 A 
HETATM   33  C16 UNL     1     174.933 185.016 286.182  1.00  0.00     0.001 A 
HETATM   34  C17 UNL     1     173.688 184.870 286.798  1.00  0.00     0.000 A 
HETATM   35  C18 UNL     1     172.520 185.103 286.069  1.00  0.00     0.001 A 
HETATM   36  C19 UNL     1     172.595 185.455 284.718  1.00  0.00     0.012 A 
ENDBRANCH   5  31
TORSDOF 9
ENDMDL
MODEL 3
REMARK VINA RESULT:      -8.2      8.551     14.907
REMARK  9 active torsions:
REMARK  status: ('A' for Active; 'I' for Inactive)
REMARK    1  A    between atoms: N2_7  and  C6_8 
REMARK    2  A    between atoms: C6_8  and  C7_9 
REMARK    3  A    between atoms: C7_9  and  N3_10 
REMARK    4  A    between atoms: N3_10  and  C8_11 
REMARK    5  A    between atoms: C8_11  and  C9_12 
REMARK    6  A    between atoms: C13_16  and  C14_17 
REMARK    7  A    between atoms: C23_27  and  S1_28 
REMARK    8  A    between atoms: S1_28  and  C24_29 
REMARK    9  A    between atoms: C24_29  and  C25_30 
ROOT
HETATM    1  C9  UNL     1     176.022 184.649 268.410  1.00  0.00     0.006 A 
HETATM    2  C10 UNL     1     176.822 183.827 267.595  1.00  0.00     0.025 A 
HETATM    3  C11 UNL     1     176.735 183.913 266.201  1.00  0.00    -0.006 A 
HETATM    4  C12 UNL     1     177.532 183.111 265.370  1.00  0.00     0.026 A 
HETATM    5  C13 UNL     1     177.432 183.217 263.968  1.00  0.00    -0.025 A 
HETATM    6  C20 UNL     1     176.528 184.142 263.416  1.00  0.00     0.014 A 
HETATM    7  C21 UNL     1     175.727 184.935 264.242  1.00  0.00     0.033 A 
HETATM    8  C22 UNL     1     175.825 184.823 265.632  1.00  0.00     0.068 A 
HETATM    9  N4  UNL     1     175.048 185.598 266.432  1.00  0.00    -0.241 NA
HETATM   10  C23 UNL     1     175.123 185.547 267.790  1.00  0.00     0.102 A 
ENDROOT
BRANCH   1  11
HETATM   11  C8  UNL     1     176.154 184.544 269.913  1.00  0.00     0.311 C 
BRANCH  11  12
HETATM   12  N3  UNL     1     175.292 183.490 270.461  1.00  0.00     0.089 N 
HETATM   13  H16 UNL     1     174.394 183.511 269.923  1.00  0.00     0.316 HD
BRANCH  12  14
HETATM   14  C7  UNL     1     174.978 183.721 271.878  1.00  0.00     0.300 C 
BRANCH  14  15
HETATM   15  C6  UNL     1     175.214 185.191 272.228  1.00  0.00     0.302 C 
BRANCH  15  16
HETATM   16  N2  UNL     1     175.835 185.292 273.567  1.00  0.00     0.093 N 
HETATM   17  C3  UNL     1     174.827 185.290 274.644  1.00  0.00     0.302 C 
HETATM   18  C2  UNL     1     175.534 185.225 276.002  1.00  0.00     0.302 C 
HETATM   19  N1  UNL     1     176.589 186.261 276.167  1.00  0.00     0.087 N 
HETATM   20  C1  UNL     1     177.889 185.668 276.534  1.00  0.00     0.310 C 
HETATM   21  C4  UNL     1     176.725 187.174 275.011  1.00  0.00     0.302 C 
HETATM   22  C5  UNL     1     176.808 186.411 273.671  1.00  0.00     0.302 C 
ENDBRANCH  15  16
ENDBRANCH  14  15
ENDBRANCH  12  14
ENDBRANCH  11  12
ENDBRANCH   1  11
BRANCH  10  23
HETATM   23  S1  UNL     1     174.039 186.633 268.733  1.00  0.00    -0.105 SA
BRANCH  23  24
HETATM   24  C24 UNL     1     174.404 188.124 267.743  1.00  0.00     0.119 C 
BRANCH  24  25
HETATM   25  C25 UNL     1     173.136 188.849 267.390  1.00  0.00    -0.049 A 
HETATM   26  C26 UNL     1     172.094 188.183 266.724  1.00  0.00     0.008 A 
HETATM   27  C27 UNL     1     170.912 188.863 266.410  1.00  0.00     0.001 A 
HETATM   28  C28 UNL     1     170.765 190.209 266.756  1.00  0.00     0.000 A 
HETATM   29  C29 UNL     1     171.802 190.879 267.413  1.00  0.00     0.001 A 
HETATM   30  C30 UNL     1     172.982 190.203 267.731  1.00  0.00     0.008 A 
ENDBRANCH  24  25
ENDBRANCH  23  24
ENDBRANCH  10  23
BRANCH   5  31
HETATM   31  C14 UNL     1     178.275 182.369 263.082  1.00  0.00    -0.026 A 
HETATM   32  C15 UNL     1     178.581 182.781 261.772  1.00  0.00     0.012 A 
HETATM   33  C16 UNL     1     179.361 181.972 260.939  1.00  0.00     0.001 A 
HETATM   34  C17 UNL     1     179.841 180.745 261.401  1.00  0.00     0.000 A 
HETATM   35  C18 UNL     1     179.556 180.332 262.704  1.00  0.00     0.001 A 
HETATM   36  C19 UNL     1     178.767 181.132 263.536  1.00  0.00     0.012 A 
ENDBRANCH   5  31
TORSDOF 9
ENDMDL
MODEL 4
REMARK VINA RESULT:      -8.1      3.184      5.467
REMARK  9 active torsions:
REMARK  status: ('A' for Active; 'I' for Inactive)
REMARK    1  A    between atoms: N2_7  and  C6_8 
REMARK    2  A    between atoms: C6_8  and  C7_9 
REMARK    3  A    between atoms: C7_9  and  N3_10 
REMARK    4  A    between atoms: N3_10  and  C8_11 
REMARK    5  A    between atoms: C8_11  and  C9_12 
REMARK    6  A    between atoms: C13_16  and  C14_17 
REMARK    7  A    between atoms: C23_27  and  S1_28 
REMARK    8  A    between atoms: S1_28  and  C24_29 
REMARK    9  A    between atoms: C24_29  and  C25_30 
ROOT
HETATM    1  C9  UNL     1     173.003 187.828 283.757  1.00  0.00     0.006 A 
HETATM    2  C10 UNL     1     172.514 187.974 285.067  1.00  0.00     0.025 A 
HETATM    3  C11 UNL     1     173.040 187.201 286.109  1.00  0.00    -0.006 A 
HETATM    4  C12 UNL     1     172.575 187.339 287.426  1.00  0.00     0.026 A 
HETATM    5  C13 UNL     1     173.122 186.554 288.462  1.00  0.00    -0.025 A 
HETATM    6  C20 UNL     1     174.144 185.637 288.156  1.00  0.00     0.014 A 
HETATM    7  C21 UNL     1     174.602 185.493 286.844  1.00  0.00     0.033 A 
HETATM    8  C22 UNL     1     174.053 186.268 285.819  1.00  0.00     0.068 A 
HETATM    9  N4  UNL     1     174.502 186.127 284.545  1.00  0.00    -0.241 NA
HETATM   10  C23 UNL     1     174.021 186.877 283.516  1.00  0.00     0.102 A 
ENDROOT
BRANCH   1  11
HETATM   11  C8  UNL     1     172.425 188.691 282.657  1.00  0.00     0.311 C 
BRANCH  11  12
HETATM   12  N3  UNL     1     172.433 190.113 283.024  1.00  0.00     0.089 N 
HETATM   13  H16 UNL     1     172.100 190.181 284.014  1.00  0.00     0.316 HD
BRANCH  12  14
HETATM   14  C7  UNL     1     171.520 190.900 282.183  1.00  0.00     0.300 C 
BRANCH  14  15
HETATM   15  C6  UNL     1     170.123 190.913 282.808  1.00  0.00     0.302 C 
BRANCH  15  16
HETATM   16  N2  UNL     1     169.985 192.087 283.697  1.00  0.00     0.093 N 
HETATM   17  C3  UNL     1     168.894 191.914 284.674  1.00  0.00     0.302 C 
HETATM   18  C2  UNL     1     168.911 193.080 285.668  1.00  0.00     0.302 C 
HETATM   19  N1  UNL     1     168.924 194.414 285.010  1.00  0.00     0.087 N 
HETATM   20  C1  UNL     1     170.048 195.247 285.479  1.00  0.00     0.310 C 
HETATM   21  C4  UNL     1     168.878 194.360 283.533  1.00  0.00     0.302 C 
HETATM   22  C5  UNL     1     169.913 193.372 282.952  1.00  0.00     0.302 C 
ENDBRANCH  15  16
ENDBRANCH  14  15
ENDBRANCH  12  14
ENDBRANCH  11  12
ENDBRANCH   1  11
BRANCH  10  23
HETATM   23  S1  UNL     1     174.709 186.592 281.876  1.00  0.00    -0.105 SA
BRANCH  23  24
HETATM   24  C24 UNL     1     173.141 186.010 281.143  1.00  0.00     0.119 C 
BRANCH  24  25
HETATM   25  C25 UNL     1     173.214 186.043 279.643  1.00  0.00    -0.049 A 
HETATM   26  C26 UNL     1     172.224 185.422 278.864  1.00  0.00     0.008 A 
HETATM   27  C27 UNL     1     172.294 185.468 277.467  1.00  0.00     0.001 A 
HETATM   28  C28 UNL     1     173.354 186.131 276.841  1.00  0.00     0.000 A 
HETATM   29  C29 UNL     1     174.347 186.745 277.611  1.00  0.00     0.001 A 
HETATM   30  C30 UNL     1     174.278 186.703 279.006  1.00  0.00     0.008 A 
ENDBRANCH  24  25
ENDBRANCH  23  24
ENDBRANCH  10  23
BRANCH   5  31
HETATM   31  C14 UNL     1     172.633 186.696 289.859  1.00  0.00    -0.026 A 
HETATM   32  C15 UNL     1     172.850 185.677 290.804  1.00  0.00     0.012 A 
HETATM   33  C16 UNL     1     172.374 185.810 292.112  1.00  0.00     0.001 A 
HETATM   34  C17 UNL     1     171.675 186.958 292.492  1.00  0.00     0.000 A 
HETATM   35  C18 UNL     1     171.465 187.982 291.568  1.00  0.00     0.001 A 
HETATM   36  C19 UNL     1     171.929 187.849 290.256  1.00  0.00     0.012 A 
ENDBRANCH   5  31
TORSDOF 9
ENDMDL
MODEL 5
REMARK VINA RESULT:      -8.1      2.820      5.305
REMARK  9 active torsions:
REMARK  status: ('A' for Active; 'I' for Inactive)
REMARK    1  A    between atoms: N2_7  and  C6_8 
REMARK    2  A    between atoms: C6_8  and  C7_9 
REMARK    3  A    between atoms: C7_9  and  N3_10 
REMARK    4  A    between atoms: N3_10  and  C8_11 
REMARK    5  A    between atoms: C8_11  and  C9_12 
REMARK    6  A    between atoms: C13_16  and  C14_17 
REMARK    7  A    between atoms: C23_27  and  S1_28 
REMARK    8  A    between atoms: S1_28  and  C24_29 
REMARK    9  A    between atoms: C24_29  and  C25_30 
ROOT
HETATM    1  C9  UNL     1     173.010 187.941 283.663  1.00  0.00     0.006 A 
HETATM    2  C10 UNL     1     172.523 188.055 284.978  1.00  0.00     0.025 A 
HETATM    3  C11 UNL     1     173.062 187.269 286.003  1.00  0.00    -0.006 A 
HETATM    4  C12 UNL     1     172.599 187.375 287.324  1.00  0.00     0.026 A 
HETATM    5  C13 UNL     1     173.159 186.579 288.342  1.00  0.00    -0.025 A 
HETATM    6  C20 UNL     1     174.193 185.682 288.017  1.00  0.00     0.014 A 
HETATM    7  C21 UNL     1     174.649 185.569 286.701  1.00  0.00     0.033 A 
HETATM    8  C22 UNL     1     174.087 186.356 285.693  1.00  0.00     0.068 A 
HETATM    9  N4  UNL     1     174.535 186.246 284.416  1.00  0.00    -0.241 NA
HETATM   10  C23 UNL     1     174.042 187.008 283.402  1.00  0.00     0.102 A 
ENDROOT
BRANCH   1  11
HETATM   11  C8  UNL     1     172.419 188.817 282.582  1.00  0.00     0.311 C 
BRANCH  11  12
HETATM   12  N3  UNL     1     171.402 189.729 283.119  1.00  0.00     0.089 N 
HETATM   13  H16 UNL     1     170.713 189.149 283.654  1.00  0.00     0.316 HD
BRANCH  12  14
HETATM   14  C7  UNL     1     170.673 190.427 282.051  1.00  0.00     0.300 C 
BRANCH  14  15
HETATM   15  C6  UNL     1     171.447 190.315 280.736  1.00  0.00     0.302 C 
BRANCH  15  16
HETATM   16  N2  UNL     1     170.514 190.000 279.633  1.00  0.00     0.093 N 
HETATM   17  C3  UNL     1     169.106 190.074 280.064  1.00  0.00     0.302 C 
HETATM   18  C2  UNL     1     168.190 189.906 278.846  1.00  0.00     0.302 C 
HETATM   19  N1  UNL     1     168.509 188.702 278.032  1.00  0.00     0.087 N 
HETATM   20  C1  UNL     1     168.741 189.042 276.616  1.00  0.00     0.310 C 
HETATM   21  C4  UNL     1     169.615 187.882 278.574  1.00  0.00     0.302 C 
HETATM   22  C5  UNL     1     170.852 188.733 278.932  1.00  0.00     0.302 C 
ENDBRANCH  15  16
ENDBRANCH  14  15
ENDBRANCH  12  14
ENDBRANCH  11  12
ENDBRANCH   1  11
BRANCH  10  23
HETATM   23  S1  UNL     1     174.729 186.765 281.756  1.00  0.00    -0.105 SA
BRANCH  23  24
HETATM   24  C24 UNL     1     173.205 186.049 281.049  1.00  0.00     0.119 C 
BRANCH  24  25
HETATM   25  C25 UNL     1     173.269 186.044 279.548  1.00  0.00    -0.049 A 
HETATM   26  C26 UNL     1     172.348 185.299 278.795  1.00  0.00     0.008 A 
HETATM   27  C27 UNL     1     172.408 185.309 277.397  1.00  0.00     0.001 A 
HETATM   28  C28 UNL     1     173.390 186.060 276.744  1.00  0.00     0.000 A 
HETATM   29  C29 UNL     1     174.316 186.798 277.489  1.00  0.00     0.001 A 
HETATM   30  C30 UNL     1     174.256 186.792 278.885  1.00  0.00     0.008 A 
ENDBRANCH  24  25
ENDBRANCH  23  24
ENDBRANCH  10  23
BRANCH   5  31
HETATM   31  C14 UNL     1     172.671 186.687 289.744  1.00  0.00    -0.026 A 
HETATM   32  C15 UNL     1     171.955 187.820 290.170  1.00  0.00     0.012 A 
HETATM   33  C16 UNL     1     171.512 187.923 291.492  1.00  0.00     0.001 A 
HETATM   34  C17 UNL     1     171.781 186.900 292.405  1.00  0.00     0.000 A 
HETATM   35  C18 UNL     1     172.479 185.764 291.991  1.00  0.00     0.001 A 
HETATM   36  C19 UNL     1     172.934 185.663 290.672  1.00  0.00     0.012 A 
ENDBRANCH   5  31
TORSDOF 9
ENDMDL
MODEL 6
REMARK VINA RESULT:      -8.1      4.095      8.119
REMARK  9 active torsions:
REMARK  status: ('A' for Active; 'I' for Inactive)
REMARK    1  A    between atoms: N2_7  and  C6_8 
REMARK    2  A    between atoms: C6_8  and  C7_9 
REMARK    3  A    between atoms: C7_9  and  N3_10 
REMARK    4  A    between atoms: N3_10  and  C8_11 
REMARK    5  A    between atoms: C8_11  and  C9_12 
REMARK    6  A    between atoms: C13_16  and  C14_17 
REMARK    7  A    between atoms: C23_27  and  S1_28 
REMARK    8  A    between atoms: S1_28  and  C24_29 
REMARK    9  A    between atoms: C24_29  and  C25_30 
ROOT
HETATM    1  C9  UNL     1     174.947 187.153 275.916  1.00  0.00     0.006 A 
HETATM    2  C10 UNL     1     175.152 186.895 277.284  1.00  0.00     0.025 A 
HETATM    3  C11 UNL     1     174.061 186.726 278.144  1.00  0.00    -0.006 A 
HETATM    4  C12 UNL     1     174.243 186.456 279.509  1.00  0.00     0.026 A 
HETATM    5  C13 UNL     1     173.130 186.284 280.356  1.00  0.00    -0.025 A 
HETATM    6  C20 UNL     1     171.836 186.380 279.812  1.00  0.00     0.014 A 
HETATM    7  C21 UNL     1     171.653 186.657 278.455  1.00  0.00     0.033 A 
HETATM    8  C22 UNL     1     172.759 186.833 277.619  1.00  0.00     0.068 A 
HETATM    9  N4  UNL     1     172.578 187.099 276.300  1.00  0.00    -0.241 NA
HETATM   10  C23 UNL     1     173.620 187.251 275.438  1.00  0.00     0.102 A 
ENDROOT
BRANCH   1  11
HETATM   11  C8  UNL     1     176.148 187.312 275.011  1.00  0.00     0.311 C 
BRANCH  11  12
HETATM   12  N3  UNL     1     176.617 186.019 274.499  1.00  0.00     0.089 N 
HETATM   13  H16 UNL     1     177.535 185.815 274.959  1.00  0.00     0.316 HD
BRANCH  12  14
HETATM   14  C7  UNL     1     176.836 186.052 273.046  1.00  0.00     0.300 C 
BRANCH  14  15
HETATM   15  C6  UNL     1     175.789 185.184 272.345  1.00  0.00     0.302 C 
BRANCH  15  16
HETATM   16  N2  UNL     1     176.088 185.113 270.898  1.00  0.00     0.093 N 
HETATM   17  C3  UNL     1     175.026 185.733 270.085  1.00  0.00     0.302 C 
HETATM   18  C2  UNL     1     175.469 185.780 268.618  1.00  0.00     0.302 C 
HETATM   19  N1  UNL     1     175.934 184.464 268.101  1.00  0.00     0.087 N 
HETATM   20  C1  UNL     1     177.287 184.549 267.520  1.00  0.00     0.310 C 
HETATM   21  C4  UNL     1     175.841 183.362 269.084  1.00  0.00     0.302 C 
HETATM   22  C5  UNL     1     176.454 183.744 270.448  1.00  0.00     0.302 C 
ENDBRANCH  15  16
ENDBRANCH  14  15
ENDBRANCH  12  14
ENDBRANCH  11  12
ENDBRANCH   1  11
BRANCH  10  23
HETATM   23  S1  UNL     1     173.239 187.595 273.712  1.00  0.00    -0.105 SA
BRANCH  23  24
HETATM   24  C24 UNL     1     173.442 189.405 273.859  1.00  0.00     0.119 C 
BRANCH  24  25
HETATM   25  C25 UNL     1     174.115 189.963 272.638  1.00  0.00    -0.049 A 
HETATM   26  C26 UNL     1     173.873 191.284 272.229  1.00  0.00     0.008 A 
HETATM   27  C27 UNL     1     174.514 191.800 271.097  1.00  0.00     0.001 A 
HETATM   28  C28 UNL     1     175.398 191.000 270.367  1.00  0.00     0.000 A 
HETATM   29  C29 UNL     1     175.637 189.680 270.766  1.00  0.00     0.001 A 
HETATM   30  C30 UNL     1     175.001 189.164 271.897  1.00  0.00     0.008 A 
ENDBRANCH  24  25
ENDBRANCH  23  24
ENDBRANCH  10  23
BRANCH   5  31
HETATM   31  C14 UNL     1     173.317 185.999 281.804  1.00  0.00    -0.026 A 
HETATM   32  C15 UNL     1     174.287 185.076 282.235  1.00  0.00     0.012 A 
HETATM   33  C16 UNL     1     174.448 184.801 283.597  1.00  0.00     0.001 A 
HETATM   34  C17 UNL     1     173.643 185.439 284.543  1.00  0.00     0.000 A 
HETATM   35  C18 UNL     1     172.686 186.367 284.129  1.00  0.00     0.001 A 
HETATM   36  C19 UNL     1     172.513 186.637 282.768  1.00  0.00     0.012 A 
ENDBRANCH   5  31
TORSDOF 9
ENDMDL
MODEL 7
REMARK VINA RESULT:      -8.0      6.737     12.434
REMARK  9 active torsions:
REMARK  status: ('A' for Active; 'I' for Inactive)
REMARK    1  A    between atoms: N2_7  and  C6_8 
REMARK    2  A    between atoms: C6_8  and  C7_9 
REMARK    3  A    between atoms: C7_9  and  N3_10 
REMARK    4  A    between atoms: N3_10  and  C8_11 
REMARK    5  A    between atoms: C8_11  and  C9_12 
REMARK    6  A    between atoms: C13_16  and  C14_17 
REMARK    7  A    between atoms: C23_27  and  S1_28 
REMARK    8  A    between atoms: S1_28  and  C24_29 
REMARK    9  A    between atoms: C24_29  and  C25_30 
ROOT
HETATM    1  C9  UNL     1     174.784 187.251 269.850  1.00  0.00     0.006 A 
HETATM    2  C10 UNL     1     175.274 186.874 268.586  1.00  0.00     0.025 A 
HETATM    3  C11 UNL     1     175.557 185.532 268.309  1.00  0.00    -0.006 A 
HETATM    4  C12 UNL     1     176.036 185.132 267.051  1.00  0.00     0.026 A 
HETATM    5  C13 UNL     1     176.310 183.774 266.791  1.00  0.00    -0.025 A 
HETATM    6  C20 UNL     1     176.091 182.827 267.807  1.00  0.00     0.014 A 
HETATM    7  C21 UNL     1     175.623 183.224 269.063  1.00  0.00     0.033 A 
HETATM    8  C22 UNL     1     175.358 184.572 269.319  1.00  0.00     0.068 A 
HETATM    9  N4  UNL     1     174.900 184.955 270.539  1.00  0.00    -0.241 NA
HETATM   10  C23 UNL     1     174.600 186.249 270.831  1.00  0.00     0.102 A 
ENDROOT
BRANCH   1  11
HETATM   11  C8  UNL     1     174.470 188.708 270.111  1.00  0.00     0.311 C 
BRANCH  11  12
HETATM   12  N3  UNL     1     175.651 189.441 270.580  1.00  0.00     0.089 N 
HETATM   13  H16 UNL     1     175.754 189.245 271.604  1.00  0.00     0.316 HD
BRANCH  12  14
HETATM   14  C7  UNL     1     175.498 190.893 270.411  1.00  0.00     0.300 C 
BRANCH  14  15
HETATM   15  C6  UNL     1     174.016 191.245 270.273  1.00  0.00     0.302 C 
BRANCH  15  16
HETATM   16  N2  UNL     1     173.542 191.903 271.510  1.00  0.00     0.093 N 
HETATM   17  C3  UNL     1     174.503 192.907 272.003  1.00  0.00     0.302 C 
HETATM   18  C2  UNL     1     173.885 193.669 273.181  1.00  0.00     0.302 C 
HETATM   19  N1  UNL     1     173.349 192.775 274.243  1.00  0.00     0.087 N 
HETATM   20  C1  UNL     1     171.936 193.069 274.547  1.00  0.00     0.310 C 
HETATM   21  C4  UNL     1     173.551 191.334 273.978  1.00  0.00     0.302 C 
HETATM   22  C5  UNL     1     173.112 190.934 272.553  1.00  0.00     0.302 C 
ENDBRANCH  15  16
ENDBRANCH  14  15
ENDBRANCH  12  14
ENDBRANCH  11  12
ENDBRANCH   1  11
BRANCH  10  23
HETATM   23  S1  UNL     1     173.996 186.619 272.487  1.00  0.00    -0.105 SA
BRANCH  23  24
HETATM   24  C24 UNL     1     174.631 185.079 273.238  1.00  0.00     0.119 C 
BRANCH  24  25
HETATM   25  C25 UNL     1     175.759 185.379 274.184  1.00  0.00    -0.049 A 
HETATM   26  C26 UNL     1     175.718 184.925 275.512  1.00  0.00     0.008 A 
HETATM   27  C27 UNL     1     176.779 185.198 276.383  1.00  0.00     0.001 A 
HETATM   28  C28 UNL     1     177.884 185.927 275.933  1.00  0.00     0.000 A 
HETATM   29  C29 UNL     1     177.927 186.388 274.613  1.00  0.00     0.001 A 
HETATM   30  C30 UNL     1     176.871 186.114 273.741  1.00  0.00     0.008 A 
ENDBRANCH  24  25
ENDBRANCH  23  24
ENDBRANCH  10  23
BRANCH   5  31
HETATM   31  C14 UNL     1     176.818 183.346 265.460  1.00  0.00    -0.026 A 
HETATM   32  C15 UNL     1     176.564 184.117 264.312  1.00  0.00     0.012 A 
HETATM   33  C16 UNL     1     177.031 183.701 263.061  1.00  0.00     0.001 A 
HETATM   34  C17 UNL     1     177.752 182.511 262.940  1.00  0.00     0.000 A 
HETATM   35  C18 UNL     1     178.022 181.744 264.075  1.00  0.00     0.001 A 
HETATM   36  C19 UNL     1     177.548 182.150 265.325  1.00  0.00     0.012 A 
ENDBRANCH   5  31
TORSDOF 9
ENDMDL
MODEL 8
REMARK VINA RESULT:      -7.9      2.665      8.479
REMARK  9 active torsions:
REMARK  status: ('A' for Active; 'I' for Inactive)
REMARK    1  A    between atoms: N2_7  and  C6_8 
REMARK    2  A    between atoms: C6_8  and  C7_9 
REMARK    3  A    between atoms: C7_9  and  N3_10 
REMARK    4  A    between atoms: N3_10  and  C8_11 
REMARK    5  A    between atoms: C8_11  and  C9_12 
REMARK    6  A    between atoms: C13_16  and  C14_17 
REMARK    7  A    between atoms: C23_27  and  S1_28 
REMARK    8  A    between atoms: S1_28  and  C24_29 
REMARK    9  A    between atoms: C24_29  and  C25_30 
ROOT
HETATM    1  C9  UNL     1     172.914 186.353 278.401  1.00  0.00     0.006 A 
HETATM    2  C10 UNL     1     172.893 185.864 277.083  1.00  0.00     0.025 A 
HETATM    3  C11 UNL     1     174.060 185.864 276.309  1.00  0.00    -0.006 A 
HETATM    4  C12 UNL     1     174.065 185.370 274.996  1.00  0.00     0.026 A 
HETATM    5  C13 UNL     1     175.252 185.375 274.236  1.00  0.00    -0.025 A 
HETATM    6  C20 UNL     1     176.432 185.876 274.817  1.00  0.00     0.014 A 
HETATM    7  C21 UNL     1     176.427 186.375 276.122  1.00  0.00     0.033 A 
HETATM    8  C22 UNL     1     175.246 186.375 276.869  1.00  0.00     0.068 A 
HETATM    9  N4  UNL     1     175.246 186.858 278.138  1.00  0.00    -0.241 NA
HETATM   10  C23 UNL     1     174.131 186.855 278.918  1.00  0.00     0.102 A 
ENDROOT
BRANCH   1  11
HETATM   11  C8  UNL     1     171.639 186.321 279.216  1.00  0.00     0.311 C 
BRANCH  11  12
HETATM   12  N3  UNL     1     170.450 186.241 278.360  1.00  0.00     0.089 N 
HETATM   13  H16 UNL     1     170.764 185.902 277.420  1.00  0.00     0.316 HD
BRANCH  12  14
HETATM   14  C7  UNL     1     169.816 187.555 278.179  1.00  0.00     0.300 C 
BRANCH  14  15
HETATM   15  C6  UNL     1     168.896 187.522 276.958  1.00  0.00     0.302 C 
BRANCH  15  16
HETATM   16  N2  UNL     1     169.574 188.154 275.805  1.00  0.00     0.093 N 
HETATM   17  C3  UNL     1     169.997 187.160 274.802  1.00  0.00     0.302 C 
HETATM   18  C2  UNL     1     170.537 187.883 273.563  1.00  0.00     0.302 C 
HETATM   19  N1  UNL     1     171.577 188.899 273.881  1.00  0.00     0.087 N 
HETATM   20  C1  UNL     1     171.236 190.225 273.332  1.00  0.00     0.310 C 
HETATM   21  C4  UNL     1     171.917 188.985 275.318  1.00  0.00     0.302 C 
HETATM   22  C5  UNL     1     170.661 189.084 276.211  1.00  0.00     0.302 C 
ENDBRANCH  15  16
ENDBRANCH  14  15
ENDBRANCH  12  14
ENDBRANCH  11  12
ENDBRANCH   1  11
BRANCH  10  23
HETATM   23  S1  UNL     1     174.269 187.521 280.586  1.00  0.00    -0.105 SA
BRANCH  23  24
HETATM   24  C24 UNL     1     174.843 185.958 281.337  1.00  0.00     0.119 C 
BRANCH  24  25
HETATM   25  C25 UNL     1     174.282 185.799 282.721  1.00  0.00    -0.049 A 
HETATM   26  C26 UNL     1     172.942 186.121 282.991  1.00  0.00     0.008 A 
HETATM   27  C27 UNL     1     172.425 185.959 284.282  1.00  0.00     0.001 A 
HETATM   28  C28 UNL     1     173.242 185.477 285.308  1.00  0.00     0.000 A 
HETATM   29  C29 UNL     1     174.580 185.162 285.047  1.00  0.00     0.001 A 
HETATM   30  C30 UNL     1     175.098 185.320 283.759  1.00  0.00     0.008 A 
ENDBRANCH  24  25
ENDBRANCH  23  24
ENDBRANCH  10  23
BRANCH   5  31
HETATM   31  C14 UNL     1     175.262 184.854 272.843  1.00  0.00    -0.026 A 
HETATM   32  C15 UNL     1     176.359 185.091 271.994  1.00  0.00     0.012 A 
HETATM   33  C16 UNL     1     176.356 184.611 270.681  1.00  0.00     0.001 A 
HETATM   34  C17 UNL     1     175.260 183.892 270.198  1.00  0.00     0.000 A 
HETATM   35  C18 UNL     1     174.172 183.638 271.035  1.00  0.00     0.001 A 
HETATM   36  C19 UNL     1     174.166 184.126 272.345  1.00  0.00     0.012 A 
ENDBRANCH   5  31
TORSDOF 9
ENDMDL
MODEL 9
REMARK VINA RESULT:      -7.8      7.568     13.344
REMARK  9 active torsions:
REMARK  status: ('A' for Active; 'I' for Inactive)
REMARK    1  A    between atoms: N2_7  and  C6_8 
REMARK    2  A    between atoms: C6_8  and  C7_9 
REMARK    3  A    between atoms: C7_9  and  N3_10 
REMARK    4  A    between atoms: N3_10  and  C8_11 
REMARK    5  A    between atoms: C8_11  and  C9_12 
REMARK    6  A    between atoms: C13_16  and  C14_17 
REMARK    7  A    between atoms: C23_27  and  S1_28 
REMARK    8  A    between atoms: S1_28  and  C24_29 
REMARK    9  A    between atoms: C24_29  and  C25_30 
ROOT
HETATM    1  C9  UNL     1     173.306 186.133 270.968  1.00  0.00     0.006 A 
HETATM    2  C10 UNL     1     172.332 186.905 270.309  1.00  0.00     0.025 A 
HETATM    3  C11 UNL     1     172.710 187.877 269.376  1.00  0.00    -0.006 A 
HETATM    4  C12 UNL     1     171.755 188.649 268.698  1.00  0.00     0.026 A 
HETATM    5  C13 UNL     1     172.158 189.619 267.758  1.00  0.00    -0.025 A 
HETATM    6  C20 UNL     1     173.530 189.796 267.506  1.00  0.00     0.014 A 
HETATM    7  C21 UNL     1     174.483 189.033 268.186  1.00  0.00     0.033 A 
HETATM    8  C22 UNL     1     174.080 188.077 269.121  1.00  0.00     0.068 A 
HETATM    9  N4  UNL     1     175.009 187.335 269.778  1.00  0.00    -0.241 NA
HETATM   10  C23 UNL     1     174.669 186.373 270.677  1.00  0.00     0.102 A 
ENDROOT
BRANCH   1  11
HETATM   11  C8  UNL     1     172.862 185.079 271.957  1.00  0.00     0.311 C 
BRANCH  11  12
HETATM   12  N3  UNL     1     172.140 183.985 271.297  1.00  0.00     0.089 N 
HETATM   13  H16 UNL     1     171.520 183.542 272.015  1.00  0.00     0.316 HD
BRANCH  12  14
HETATM   14  C7  UNL     1     173.055 182.954 270.789  1.00  0.00     0.300 C 
BRANCH  14  15
HETATM   15  C6  UNL     1     172.997 182.917 269.261  1.00  0.00     0.302 C 
BRANCH  15  16
HETATM   16  N2  UNL     1     174.221 183.529 268.700  1.00  0.00     0.093 N 
HETATM   17  C3  UNL     1     173.936 184.325 267.492  1.00  0.00     0.302 C 
HETATM   18  C2  UNL     1     175.206 185.066 267.058  1.00  0.00     0.302 C 
HETATM   19  N1  UNL     1     176.392 184.176 266.929  1.00  0.00     0.087 N 
HETATM   20  C1  UNL     1     177.531 184.658 267.732  1.00  0.00     0.310 C 
HETATM   21  C4  UNL     1     176.109 182.750 267.201  1.00  0.00     0.302 C 
HETATM   22  C5  UNL     1     175.326 182.551 268.516  1.00  0.00     0.302 C 
ENDBRANCH  15  16
ENDBRANCH  14  15
ENDBRANCH  12  14
ENDBRANCH  11  12
ENDBRANCH   1  11
BRANCH  10  23
HETATM   23  S1  UNL     1     176.001 185.458 271.473  1.00  0.00    -0.105 SA
BRANCH  23  24
HETATM   24  C24 UNL     1     176.409 186.777 272.670  1.00  0.00     0.119 C 
BRANCH  24  25
HETATM   25  C25 UNL     1     176.663 186.195 274.032  1.00  0.00    -0.049 A 
HETATM   26  C26 UNL     1     175.691 185.404 274.665  1.00  0.00     0.008 A 
HETATM   27  C27 UNL     1     175.942 184.856 275.928  1.00  0.00     0.001 A 
HETATM   28  C28 UNL     1     177.162 185.097 276.566  1.00  0.00     0.000 A 
HETATM   29  C29 UNL     1     178.131 185.891 275.944  1.00  0.00     0.001 A 
HETATM   30  C30 UNL     1     177.885 186.437 274.682  1.00  0.00     0.008 A 
ENDBRANCH  24  25
ENDBRANCH  23  24
ENDBRANCH  10  23
BRANCH   5  31
HETATM   31  C14 UNL     1     171.149 190.441 267.038  1.00  0.00    -0.026 A 
HETATM   32  C15 UNL     1     170.157 189.832 266.248  1.00  0.00     0.012 A 
HETATM   33  C16 UNL     1     169.220 190.611 265.561  1.00  0.00     0.001 A 
HETATM   34  C17 UNL     1     169.264 192.004 265.651  1.00  0.00     0.000 A 
HETATM   35  C18 UNL     1     170.235 192.620 266.442  1.00  0.00     0.001 A 
HETATM   36  C19 UNL     1     171.180 191.846 267.121  1.00  0.00     0.012 A 
ENDBRANCH   5  31
TORSDOF 9
ENDMDL
