MODEL 1
REMARK VINA RESULT:      -9.6      0.000      0.000
REMARK  9 active torsions:
REMARK  status: ('A' for Active; 'I' for Inactive)
REMARK    1  A    between atoms: C_4  and  S_30 
REMARK    2  A    between atoms: C_5  and  C_7 
REMARK    3  A    between atoms: C_7  and  N_8 
REMARK    4  A    between atoms: N_8  and  C_9 
REMARK    5  A    between atoms: C_9  and  C_10 
REMARK    6  A    between atoms: C_10  and  C_11 
REMARK    7  A    between atoms: N_14  and  C_17 
REMARK    8  A    between atoms: S_30  and  C_37 
REMARK    9  A    between atoms: C_31  and  C_37 
ROOT
HETATM    1  C           1     171.620 189.426 281.201  0.00  0.00    -0.005 A 
HETATM    2  C           1     170.860 189.066 280.101  0.00  0.00     0.130 A 
HETATM    3  N           1     171.120 187.988 279.328  0.00  0.00    -0.253 NA
HETATM    4  C           1     172.189 187.238 279.676  0.00  0.00     0.101 A 
HETATM    5  C           1     173.008 187.518 280.758  0.00  0.00     0.006 A 
HETATM    6  C           1     172.715 188.634 281.534  0.00  0.00     0.025 A 
HETATM    7  C           1     171.309 190.507 281.926  0.00  0.00     0.014 A 
HETATM    8  C           1     172.022 191.693 281.748  0.00  0.00     0.130 A 
HETATM    9  C           1     171.698 192.820 282.504  0.00  0.00     0.085 A 
HETATM   10  C           1     170.662 192.761 283.437  0.00  0.00     0.119 A 
HETATM   11  C           1     169.951 191.575 283.613  0.00  0.00     0.043 A 
HETATM   12  C           1     170.274 190.447 282.858  0.00  0.00     0.018 A 
HETATM   13  F           1     170.356 193.827 284.152  0.00  0.00    -0.206 F 
HETATM   14  F           1     173.002 191.749 280.866  0.00  0.00    -0.205 F 
ENDROOT
BRANCH   5  15
HETATM   15  C           1     174.176 186.641 281.083  0.00  0.00     0.311 C 
BRANCH  15  16
HETATM   16  N           1     175.021 187.302 282.041  0.00  0.00     0.087 N 
HETATM   17  H           1     175.735 187.838 281.551  0.00  0.00     0.316 HD
BRANCH  16  18
HETATM   18  C           1     175.647 186.288 282.845  0.00  0.00     0.270 C 
BRANCH  18  19
HETATM   19  C           1     174.759 185.051 282.888  0.00  0.00     0.034 C 
BRANCH  19  20
HETATM   20  C           1     174.169 184.897 284.284  0.00  0.00    -0.010 C 
HETATM   21  C           1     175.190 185.366 285.314  0.00  0.00     0.035 C 
HETATM   22  C           1     174.582 185.417 286.714  0.00  0.00     0.273 C 
HETATM   23  N           1     173.379 186.251 286.746  0.00  0.00     0.093 N 
HETATM   24  C           1     172.363 185.760 285.814  0.00  0.00     0.273 C 
HETATM   25  C           1     172.891 185.723 284.381  0.00  0.00     0.035 C 
BRANCH  23  26
HETATM   26  C           1     172.847 186.129 288.077  0.00  0.00     0.223 C 
HETATM   27  C           1     173.906 185.617 289.041  0.00  0.00     0.036 C 
HETATM   28  C           1     173.536 186.201 290.403  0.00  0.00     0.002 C 
HETATM   29  C           1     172.447 187.240 290.142  0.00  0.00     0.002 C 
HETATM   30  C           1     172.486 187.491 288.643  0.00  0.00     0.036 C 
ENDBRANCH  23  26
ENDBRANCH  19  20
ENDBRANCH  18  19
ENDBRANCH  16  18
ENDBRANCH  15  16
ENDBRANCH   5  15
BRANCH   4  31
HETATM   31  S           1     172.574 185.780 278.666  0.00  0.00    -0.105 SA
BRANCH  31  32
HETATM   32  C           1     173.045 186.756 277.209  0.00  0.00     0.119 C 
BRANCH  32  33
HETATM   33  C           1     174.383 186.303 276.716  0.00  0.00    -0.049 A 
HETATM   34  C           1     175.548 186.808 277.297  0.00  0.00     0.008 A 
HETATM   35  C           1     176.795 186.386 276.838  0.00  0.00     0.001 A 
HETATM   36  C           1     176.880 185.460 275.799  0.00  0.00     0.000 A 
HETATM   37  C           1     175.716 184.955 275.219  0.00  0.00     0.001 A 
HETATM   38  C           1     174.468 185.377 275.677  0.00  0.00     0.008 A 
ENDBRANCH  32  33
ENDBRANCH  31  32
ENDBRANCH   4  31
TORSDOF 9
ENDMDL
MODEL 2
REMARK VINA RESULT:      -9.1      9.094     13.087
REMARK  9 active torsions:
REMARK  status: ('A' for Active; 'I' for Inactive)
REMARK    1  A    between atoms: C_4  and  S_30 
REMARK    2  A    between atoms: C_5  and  C_7 
REMARK    3  A    between atoms: C_7  and  N_8 
REMARK    4  A    between atoms: N_8  and  C_9 
REMARK    5  A    between atoms: C_9  and  C_10 
REMARK    6  A    between atoms: C_10  and  C_11 
REMARK    7  A    between atoms: N_14  and  C_17 
REMARK    8  A    between atoms: S_30  and  C_37 
REMARK    9  A    between atoms: C_31  and  C_37 
ROOT
HETATM    1  C           1     174.701 185.538 273.475  0.00  0.00    -0.005 A 
HETATM    2  C           1     173.643 186.425 273.582  0.00  0.00     0.130 A 
HETATM    3  N           1     172.613 186.477 272.708  0.00  0.00    -0.253 NA
HETATM    4  C           1     172.648 185.599 271.681  0.00  0.00     0.101 A 
HETATM    5  C           1     173.663 184.675 271.490  0.00  0.00     0.006 A 
HETATM    6  C           1     174.708 184.647 272.407  0.00  0.00     0.025 A 
HETATM    7  C           1     175.690 185.538 274.376  0.00  0.00     0.014 A 
HETATM    8  C           1     176.905 186.153 274.076  0.00  0.00     0.130 A 
HETATM    9  C           1     177.937 186.153 275.015  0.00  0.00     0.085 A 
HETATM   10  C           1     177.753 185.538 276.254  0.00  0.00     0.119 A 
HETATM   11  C           1     176.537 184.924 276.553  0.00  0.00     0.043 A 
HETATM   12  C           1     175.505 184.923 275.614  0.00  0.00     0.018 A 
HETATM   13  F           1     178.729 185.537 277.142  0.00  0.00    -0.206 F 
HETATM   14  F           1     177.080 186.734 272.904  0.00  0.00    -0.205 F 
ENDROOT
BRANCH   5  15
HETATM   15  C           1     173.634 183.733 270.328  0.00  0.00     0.311 C 
BRANCH  15  16
HETATM   16  N           1     174.806 183.933 269.519  0.00  0.00     0.087 N 
HETATM   17  H           1     175.568 184.274 270.104  0.00  0.00     0.316 HD
BRANCH  16  18
HETATM   18  C           1     174.487 184.918 268.522  0.00  0.00     0.270 C 
BRANCH  18  19
HETATM   19  C           1     175.505 186.050 268.580  0.00  0.00     0.034 C 
BRANCH  19  20
HETATM   20  C           1     174.812 187.336 269.010  0.00  0.00    -0.010 C 
HETATM   21  C           1     175.284 187.715 270.409  0.00  0.00     0.035 C 
HETATM   22  C           1     174.772 189.097 270.812  0.00  0.00     0.273 C 
HETATM   23  N           1     175.153 190.116 269.832  0.00  0.00     0.093 N 
HETATM   24  C           1     174.637 189.797 268.500  0.00  0.00     0.273 C 
HETATM   25  C           1     175.145 188.442 268.014  0.00  0.00     0.035 C 
BRANCH  23  26
HETATM   26  C           1     174.525 191.336 270.264  0.00  0.00     0.223 C 
HETATM   27  C           1     173.445 191.055 271.298  0.00  0.00     0.036 C 
HETATM   28  C           1     173.387 192.303 272.178  0.00  0.00     0.002 C 
HETATM   29  C           1     174.604 193.148 271.804  0.00  0.00     0.002 C 
HETATM   30  C           1     175.509 192.216 271.014  0.00  0.00     0.036 C 
ENDBRANCH  23  26
ENDBRANCH  19  20
ENDBRANCH  18  19
ENDBRANCH  16  18
ENDBRANCH  15  16
ENDBRANCH   5  15
BRANCH   4  31
HETATM   31  S           1     171.286 185.633 270.482  0.00  0.00    -0.105 SA
BRANCH  31  32
HETATM   32  C           1     171.135 187.442 270.513  0.00  0.00     0.119 C 
BRANCH  32  33
HETATM   33  C           1     171.244 187.976 269.119  0.00  0.00    -0.049 A 
HETATM   34  C           1     171.069 189.339 268.878  0.00  0.00     0.008 A 
HETATM   35  C           1     171.171 189.837 267.580  0.00  0.00     0.001 A 
HETATM   36  C           1     171.448 188.972 266.521  0.00  0.00     0.000 A 
HETATM   37  C           1     171.624 187.610 266.762  0.00  0.00     0.001 A 
HETATM   38  C           1     171.522 187.112 268.060  0.00  0.00     0.008 A 
ENDBRANCH  32  33
ENDBRANCH  31  32
ENDBRANCH   4  31
TORSDOF 9
ENDMDL
MODEL 3
REMARK VINA RESULT:      -8.8      5.782     10.387
REMARK  9 active torsions:
REMARK  status: ('A' for Active; 'I' for Inactive)
REMARK    1  A    between atoms: C_4  and  S_30 
REMARK    2  A    between atoms: C_5  and  C_7 
REMARK    3  A    between atoms: C_7  and  N_8 
REMARK    4  A    between atoms: N_8  and  C_9 
REMARK    5  A    between atoms: C_9  and  C_10 
REMARK    6  A    between atoms: C_10  and  C_11 
REMARK    7  A    between atoms: N_14  and  C_17 
REMARK    8  A    between atoms: S_30  and  C_37 
REMARK    9  A    between atoms: C_31  and  C_37 
ROOT
HETATM    1  C           1     175.531 185.649 272.743  0.00  0.00    -0.005 A 
HETATM    2  C           1     175.821 184.704 271.773  0.00  0.00     0.130 A 
HETATM    3  N           1     175.145 184.591 270.608  0.00  0.00    -0.253 NA
HETATM    4  C           1     174.134 185.465 270.409  0.00  0.00     0.101 A 
HETATM    5  C           1     173.770 186.444 271.319  0.00  0.00     0.006 A 
HETATM    6  C           1     174.484 186.535 272.508  0.00  0.00     0.025 A 
HETATM    7  C           1     176.240 185.709 273.876  0.00  0.00     0.014 A 
HETATM    8  C           1     175.723 185.162 275.050  0.00  0.00     0.130 A 
HETATM    9  C           1     176.461 185.224 276.232  0.00  0.00     0.085 A 
HETATM   10  C           1     177.717 185.833 276.239  0.00  0.00     0.119 A 
HETATM   11  C           1     178.233 186.379 275.064  0.00  0.00     0.043 A 
HETATM   12  C           1     177.495 186.317 273.882  0.00  0.00     0.018 A 
HETATM   13  F           1     178.416 185.892 277.357  0.00  0.00    -0.206 F 
HETATM   14  F           1     174.535 184.587 275.044  0.00  0.00    -0.205 F 
ENDROOT
BRANCH   5  15
HETATM   15  C           1     172.637 187.378 271.030  0.00  0.00     0.311 C 
BRANCH  15  16
HETATM   16  N           1     172.580 188.393 272.046  0.00  0.00     0.087 N 
HETATM   17  H           1     173.107 188.086 272.863  0.00  0.00     0.316 HD
BRANCH  16  18
HETATM   18  C           1     171.200 188.574 272.407  0.00  0.00     0.270 C 
BRANCH  18  19
HETATM   19  C           1     170.699 187.339 273.144  0.00  0.00     0.034 C 
BRANCH  19  20
HETATM   20  C           1     170.957 187.498 274.637  0.00  0.00    -0.010 C 
HETATM   21  C           1     169.699 187.108 275.406  0.00  0.00     0.035 C 
HETATM   22  C           1     169.961 187.062 276.909  0.00  0.00     0.273 C 
HETATM   23  N           1     171.075 186.169 277.232  0.00  0.00     0.093 N 
HETATM   24  C           1     172.306 186.582 276.557  0.00  0.00     0.273 C 
HETATM   25  C           1     172.129 186.610 275.041  0.00  0.00     0.035 C 
BRANCH  23  26
HETATM   26  C           1     171.289 186.297 278.649  0.00  0.00     0.223 C 
HETATM   27  C           1     172.617 185.677 279.057  0.00  0.00     0.036 C 
HETATM   28  C           1     173.074 186.462 280.285  0.00  0.00     0.002 C 
HETATM   29  C           1     172.148 187.673 280.390  0.00  0.00     0.002 C 
HETATM   30  C           1     171.446 187.755 279.043  0.00  0.00     0.036 C 
ENDBRANCH  23  26
ENDBRANCH  19  20
ENDBRANCH  18  19
ENDBRANCH  16  18
ENDBRANCH  15  16
ENDBRANCH   5  15
BRANCH   4  31
HETATM   31  S           1     173.199 185.350 268.857  0.00  0.00    -0.105 SA
BRANCH  31  32
HETATM   32  C           1     174.410 186.312 267.907  0.00  0.00     0.119 C 
BRANCH  32  33
HETATM   33  C           1     173.922 187.719 267.756  0.00  0.00    -0.049 A 
HETATM   34  C           1     172.658 187.965 267.218  0.00  0.00     0.008 A 
HETATM   35  C           1     172.204 189.275 267.077  0.00  0.00     0.001 A 
HETATM   36  C           1     173.012 190.341 267.474  0.00  0.00     0.000 A 
HETATM   37  C           1     174.274 190.094 268.013  0.00  0.00     0.001 A 
HETATM   38  C           1     174.730 188.784 268.153  0.00  0.00     0.008 A 
ENDBRANCH  32  33
ENDBRANCH  31  32
ENDBRANCH   4  31
TORSDOF 9
ENDMDL
MODEL 4
REMARK VINA RESULT:      -8.6      2.300      9.119
REMARK  9 active torsions:
REMARK  status: ('A' for Active; 'I' for Inactive)
REMARK    1  A    between atoms: C_4  and  S_30 
REMARK    2  A    between atoms: C_5  and  C_7 
REMARK    3  A    between atoms: C_7  and  N_8 
REMARK    4  A    between atoms: N_8  and  C_9 
REMARK    5  A    between atoms: C_9  and  C_10 
REMARK    6  A    between atoms: C_10  and  C_11 
REMARK    7  A    between atoms: N_14  and  C_17 
REMARK    8  A    between atoms: S_30  and  C_37 
REMARK    9  A    between atoms: C_31  and  C_37 
ROOT
HETATM    1  C           1     172.624 189.421 282.568  0.00  0.00    -0.005 A 
HETATM    2  C           1     173.701 189.296 283.429  0.00  0.00     0.130 A 
HETATM    3  N           1     174.572 188.264 283.399  0.00  0.00    -0.253 NA
HETATM    4  C           1     174.352 187.315 282.463  0.00  0.00     0.101 A 
HETATM    5  C           1     173.304 187.352 281.558  0.00  0.00     0.006 A 
HETATM    6  C           1     172.425 188.427 281.614  0.00  0.00     0.025 A 
HETATM    7  C           1     171.797 190.469 282.649  0.00  0.00     0.014 A 
HETATM    8  C           1     170.560 190.334 283.279  0.00  0.00     0.130 A 
HETATM    9  C           1     169.698 191.427 283.364  0.00  0.00     0.085 A 
HETATM   10  C           1     170.073 192.655 282.820  0.00  0.00     0.119 A 
HETATM   11  C           1     171.310 192.790 282.190  0.00  0.00     0.043 A 
HETATM   12  C           1     172.172 191.697 282.105  0.00  0.00     0.018 A 
HETATM   13  F           1     169.257 193.690 282.900  0.00  0.00    -0.206 F 
HETATM   14  F           1     170.205 189.172 283.794  0.00  0.00    -0.205 F 
ENDROOT
BRANCH   5  15
HETATM   15  C           1     173.123 186.263 280.548  0.00  0.00     0.311 C 
BRANCH  15  16
HETATM   16  N           1     172.119 186.653 279.595  0.00  0.00     0.087 N 
HETATM   17  H           1     171.232 186.213 279.837  0.00  0.00     0.316 HD
BRANCH  16  18
HETATM   18  C           1     172.545 186.198 278.300  0.00  0.00     0.270 C 
BRANCH  18  19
HETATM   19  C           1     174.026 186.500 278.115  0.00  0.00     0.034 C 
BRANCH  19  20
HETATM   20  C           1     174.353 186.553 276.628  0.00  0.00    -0.010 C 
HETATM   21  C           1     175.260 185.380 276.273  0.00  0.00     0.035 C 
HETATM   22  C           1     175.461 185.273 274.763  0.00  0.00     0.273 C 
HETATM   23  N           1     174.181 185.183 274.057  0.00  0.00     0.093 N 
HETATM   24  C           1     173.335 186.345 274.333  0.00  0.00     0.273 C 
HETATM   25  C           1     173.057 186.491 275.827  0.00  0.00     0.035 C 
BRANCH  23  26
HETATM   26  C           1     174.500 185.197 272.655  0.00  0.00     0.223 C 
HETATM   27  C           1     176.000 185.329 272.439  0.00  0.00     0.036 C 
HETATM   28  C           1     176.287 184.623 271.115  0.00  0.00     0.002 C 
HETATM   29  C           1     175.007 183.876 270.741  0.00  0.00     0.002 C 
HETATM   30  C           1     174.169 183.863 272.010  0.00  0.00     0.036 C 
ENDBRANCH  23  26
ENDBRANCH  19  20
ENDBRANCH  18  19
ENDBRANCH  16  18
ENDBRANCH  15  16
ENDBRANCH   5  15
BRANCH   4  31
HETATM   31  S           1     175.498 185.909 282.386  0.00  0.00    -0.105 SA
BRANCH  31  32
HETATM   32  C           1     174.237 184.691 282.854  0.00  0.00     0.119 C 
BRANCH  32  33
HETATM   33  C           1     173.871 184.877 284.293  0.00  0.00    -0.049 A 
HETATM   34  C           1     174.855 184.792 285.279  0.00  0.00     0.008 A 
HETATM   35  C           1     174.515 184.966 286.620  0.00  0.00     0.001 A 
HETATM   36  C           1     173.191 185.224 286.977  0.00  0.00     0.000 A 
HETATM   37  C           1     172.208 185.310 285.991  0.00  0.00     0.001 A 
HETATM   38  C           1     172.548 185.136 284.650  0.00  0.00     0.008 A 
ENDBRANCH  32  33
ENDBRANCH  31  32
ENDBRANCH   4  31
TORSDOF 9
ENDMDL
MODEL 5
REMARK VINA RESULT:      -8.6     10.040     15.416
REMARK  9 active torsions:
REMARK  status: ('A' for Active; 'I' for Inactive)
REMARK    1  A    between atoms: C_4  and  S_30 
REMARK    2  A    between atoms: C_5  and  C_7 
REMARK    3  A    between atoms: C_7  and  N_8 
REMARK    4  A    between atoms: N_8  and  C_9 
REMARK    5  A    between atoms: C_9  and  C_10 
REMARK    6  A    between atoms: C_10  and  C_11 
REMARK    7  A    between atoms: N_14  and  C_17 
REMARK    8  A    between atoms: S_30  and  C_37 
REMARK    9  A    between atoms: C_31  and  C_37 
ROOT
HETATM    1  C           1     175.937 183.975 267.435  0.00  0.00    -0.005 A 
HETATM    2  C           1     176.747 184.615 268.358  0.00  0.00     0.130 A 
HETATM    3  N           1     176.400 184.823 269.648  0.00  0.00    -0.253 NA
HETATM    4  C           1     175.186 184.368 270.027  0.00  0.00     0.101 A 
HETATM    5  C           1     174.306 183.717 269.178  0.00  0.00     0.006 A 
HETATM    6  C           1     174.692 183.518 267.857  0.00  0.00     0.025 A 
HETATM    7  C           1     176.340 183.801 266.172  0.00  0.00     0.014 A 
HETATM    8  C           1     175.866 184.644 265.167  0.00  0.00     0.130 A 
HETATM    9  C           1     176.286 184.462 263.849  0.00  0.00     0.085 A 
HETATM   10  C           1     177.181 183.437 263.537  0.00  0.00     0.119 A 
HETATM   11  C           1     177.655 182.595 264.543  0.00  0.00     0.043 A 
HETATM   12  C           1     177.234 182.777 265.861  0.00  0.00     0.018 A 
HETATM   13  F           1     177.579 183.265 262.290  0.00  0.00    -0.206 F 
HETATM   14  F           1     175.019 185.612 265.461  0.00  0.00    -0.205 F 
ENDROOT
BRANCH   5  15
HETATM   15  C           1     172.975 183.240 269.669  0.00  0.00     0.311 C 
BRANCH  15  16
HETATM   16  N           1     171.968 183.528 268.685  0.00  0.00     0.087 N 
HETATM   17  H           1     172.404 183.613 267.768  0.00  0.00     0.316 HD
BRANCH  16  18
HETATM   18  C           1     171.353 184.778 269.042  0.00  0.00     0.270 C 
BRANCH  18  19
HETATM   19  C           1     171.621 185.807 267.952  0.00  0.00     0.034 C 
BRANCH  19  20
HETATM   20  C           1     172.192 187.073 268.577  0.00  0.00    -0.010 C 
HETATM   21  C           1     172.056 186.989 270.093  0.00  0.00     0.035 C 
HETATM   22  C           1     172.786 188.141 270.781  0.00  0.00     0.273 C 
HETATM   23  N           1     174.193 188.198 270.381  0.00  0.00     0.093 N 
HETATM   24  C           1     174.332 188.356 268.932  0.00  0.00     0.273 C 
HETATM   25  C           1     173.658 187.212 268.178  0.00  0.00     0.035 C 
BRANCH  23  26
HETATM   26  C           1     174.735 189.375 271.003  0.00  0.00     0.223 C 
HETATM   27  C           1     175.595 190.161 270.025  0.00  0.00     0.036 C 
HETATM   28  C           1     175.492 191.619 270.470  0.00  0.00     0.002 C 
HETATM   29  C           1     174.375 191.672 271.511  0.00  0.00     0.002 C 
HETATM   30  C           1     173.631 190.354 271.365  0.00  0.00     0.036 C 
ENDBRANCH  23  26
ENDBRANCH  19  20
ENDBRANCH  18  19
ENDBRANCH  16  18
ENDBRANCH  15  16
ENDBRANCH   5  15
BRANCH   4  31
HETATM   31  S           1     174.678 184.625 271.751  0.00  0.00    -0.105 SA
BRANCH  31  32
HETATM   32  C           1     176.063 185.737 272.126  0.00  0.00     0.119 C 
BRANCH  32  33
HETATM   33  C           1     176.354 185.694 273.594  0.00  0.00    -0.049 A 
HETATM   34  C           1     177.502 186.309 274.096  0.00  0.00     0.008 A 
HETATM   35  C           1     177.773 186.268 275.462  0.00  0.00     0.001 A 
HETATM   36  C           1     176.899 185.613 276.329  0.00  0.00     0.000 A 
HETATM   37  C           1     175.752 184.998 275.827  0.00  0.00     0.001 A 
HETATM   38  C           1     175.480 185.038 274.460  0.00  0.00     0.008 A 
ENDBRANCH  32  33
ENDBRANCH  31  32
ENDBRANCH   4  31
TORSDOF 9
ENDMDL
MODEL 6
REMARK VINA RESULT:      -8.5      4.655      7.504
REMARK  9 active torsions:
REMARK  status: ('A' for Active; 'I' for Inactive)
REMARK    1  A    between atoms: C_4  and  S_30 
REMARK    2  A    between atoms: C_5  and  C_7 
REMARK    3  A    between atoms: C_7  and  N_8 
REMARK    4  A    between atoms: N_8  and  C_9 
REMARK    5  A    between atoms: C_9  and  C_10 
REMARK    6  A    between atoms: C_10  and  C_11 
REMARK    7  A    between atoms: N_14  and  C_17 
REMARK    8  A    between atoms: S_30  and  C_37 
REMARK    9  A    between atoms: C_31  and  C_37 
ROOT
HETATM    1  C           1     173.002 189.916 272.363  0.00  0.00    -0.005 A 
HETATM    2  C           1     173.874 189.272 271.501  0.00  0.00     0.130 A 
HETATM    3  N           1     174.132 187.946 271.544  0.00  0.00    -0.253 NA
HETATM    4  C           1     173.485 187.236 272.494  0.00  0.00     0.101 A 
HETATM    5  C           1     172.596 187.789 273.400  0.00  0.00     0.006 A 
HETATM    6  C           1     172.352 189.157 273.330  0.00  0.00     0.025 A 
HETATM    7  C           1     172.791 191.233 272.267  0.00  0.00     0.014 A 
HETATM    8  C           1     173.424 192.107 273.152  0.00  0.00     0.130 A 
HETATM    9  C           1     173.203 193.480 273.053  0.00  0.00     0.085 A 
HETATM   10  C           1     172.350 193.981 272.069  0.00  0.00     0.119 A 
HETATM   11  C           1     171.717 193.107 271.185  0.00  0.00     0.043 A 
HETATM   12  C           1     171.937 191.733 271.284  0.00  0.00     0.018 A 
HETATM   13  F           1     172.141 195.280 271.975  0.00  0.00    -0.206 F 
HETATM   14  F           1     174.231 191.634 274.083  0.00  0.00    -0.205 F 
ENDROOT
BRANCH   5  15
HETATM   15  C           1     171.916 186.939 274.427  0.00  0.00     0.311 C 
BRANCH  15  16
HETATM   16  N           1     171.199 187.778 275.348  0.00  0.00     0.087 N 
HETATM   17  H           1     171.287 188.752 275.059  0.00  0.00     0.316 HD
BRANCH  16  18
HETATM   18  C           1     171.791 187.607 276.648  0.00  0.00     0.270 C 
BRANCH  18  19
HETATM   19  C           1     172.570 186.299 276.684  0.00  0.00     0.034 C 
BRANCH  19  20
HETATM   20  C           1     173.062 186.039 278.102  0.00  0.00    -0.010 C 
HETATM   21  C           1     174.218 186.983 278.412  0.00  0.00     0.035 C 
HETATM   22  C           1     174.622 186.901 279.882  0.00  0.00     0.273 C 
HETATM   23  N           1     173.482 187.154 280.766  0.00  0.00     0.093 N 
HETATM   24  C           1     172.397 186.202 280.527  0.00  0.00     0.273 C 
HETATM   25  C           1     171.912 186.260 279.079  0.00  0.00     0.035 C 
BRANCH  23  26
HETATM   26  C           1     173.963 186.942 282.104  0.00  0.00     0.223 C 
HETATM   27  C           1     173.154 185.864 282.809  0.00  0.00     0.036 C 
HETATM   28  C           1     174.113 185.222 283.810  0.00  0.00     0.002 C 
HETATM   29  C           1     175.505 185.753 283.473  0.00  0.00     0.002 C 
HETATM   30  C           1     175.371 186.372 282.090  0.00  0.00     0.036 C 
ENDBRANCH  23  26
ENDBRANCH  19  20
ENDBRANCH  18  19
ENDBRANCH  16  18
ENDBRANCH  15  16
ENDBRANCH   5  15
BRANCH   4  31
HETATM   31  S           1     173.801 185.451 272.588  0.00  0.00    -0.105 SA
BRANCH  31  32
HETATM   32  C           1     175.600 185.631 272.428  0.00  0.00     0.119 C 
BRANCH  32  33
HETATM   33  C           1     176.224 185.643 273.788  0.00  0.00    -0.049 A 
HETATM   34  C           1     177.427 186.319 273.998  0.00  0.00     0.008 A 
HETATM   35  C           1     178.008 186.331 275.265  0.00  0.00     0.001 A 
HETATM   36  C           1     177.388 185.667 276.324  0.00  0.00     0.000 A 
HETATM   37  C           1     176.185 184.992 276.114  0.00  0.00     0.001 A 
HETATM   38  C           1     175.604 184.980 274.847  0.00  0.00     0.008 A 
ENDBRANCH  32  33
ENDBRANCH  31  32
ENDBRANCH   4  31
TORSDOF 9
ENDMDL
MODEL 7
REMARK VINA RESULT:      -8.5      5.369     11.032
REMARK  9 active torsions:
REMARK  status: ('A' for Active; 'I' for Inactive)
REMARK    1  A    between atoms: C_4  and  S_30 
REMARK    2  A    between atoms: C_5  and  C_7 
REMARK    3  A    between atoms: C_7  and  N_8 
REMARK    4  A    between atoms: N_8  and  C_9 
REMARK    5  A    between atoms: C_9  and  C_10 
REMARK    6  A    between atoms: C_10  and  C_11 
REMARK    7  A    between atoms: N_14  and  C_17 
REMARK    8  A    between atoms: S_30  and  C_37 
REMARK    9  A    between atoms: C_31  and  C_37 
ROOT
HETATM    1  C           1     171.684 185.907 286.506  0.00  0.00    -0.005 A 
HETATM    2  C           1     170.984 184.854 287.070  0.00  0.00     0.130 A 
HETATM    3  N           1     169.936 185.011 287.909  0.00  0.00    -0.253 NA
HETATM    4  C           1     169.575 186.281 288.194  0.00  0.00     0.101 A 
HETATM    5  C           1     170.213 187.398 287.679  0.00  0.00     0.006 A 
HETATM    6  C           1     171.287 187.204 286.819  0.00  0.00     0.025 A 
HETATM    7  C           1     172.713 185.684 285.681  0.00  0.00     0.014 A 
HETATM    8  C           1     174.021 185.801 286.152  0.00  0.00     0.130 A 
HETATM    9  C           1     175.095 185.569 285.292  0.00  0.00     0.085 A 
HETATM   10  C           1     174.860 185.219 283.962  0.00  0.00     0.119 A 
HETATM   11  C           1     173.552 185.102 283.492  0.00  0.00     0.043 A 
HETATM   12  C           1     172.478 185.335 284.352  0.00  0.00     0.018 A 
HETATM   13  F           1     175.876 184.999 283.148  0.00  0.00    -0.206 F 
HETATM   14  F           1     174.243 186.132 287.410  0.00  0.00    -0.205 F 
ENDROOT
BRANCH   5  15
HETATM   15  C           1     169.757 188.777 288.040  0.00  0.00     0.311 C 
BRANCH  15  16
HETATM   16  N           1     168.613 189.129 287.244  0.00  0.00     0.087 N 
HETATM   17  H           1     168.500 188.449 286.493  0.00  0.00     0.316 HD
BRANCH  16  18
HETATM   18  C           1     168.855 190.430 286.681  0.00  0.00     0.270 C 
BRANCH  18  19
HETATM   19  C           1     168.242 191.495 287.580  0.00  0.00     0.034 C 
BRANCH  19  20
HETATM   20  C           1     168.146 192.810 286.818  0.00  0.00    -0.010 C 
HETATM   21  C           1     168.590 193.950 287.728  0.00  0.00     0.035 C 
HETATM   22  C           1     168.699 195.264 286.957  0.00  0.00     0.273 C 
HETATM   23  N           1     169.588 195.135 285.801  0.00  0.00     0.093 N 
HETATM   24  C           1     169.125 194.094 284.883  0.00  0.00     0.273 C 
HETATM   25  C           1     169.032 192.737 285.579  0.00  0.00     0.035 C 
BRANCH  23  26
HETATM   26  C           1     169.520 196.393 285.106  0.00  0.00     0.223 C 
HETATM   27  C           1     168.915 196.217 283.722  0.00  0.00     0.036 C 
HETATM   28  C           1     168.231 197.545 283.403  0.00  0.00     0.002 C 
HETATM   29  C           1     168.224 198.347 284.703  0.00  0.00     0.002 C 
HETATM   30  C           1     168.553 197.340 285.794  0.00  0.00     0.036 C 
ENDBRANCH  23  26
ENDBRANCH  19  20
ENDBRANCH  18  19
ENDBRANCH  16  18
ENDBRANCH  15  16
ENDBRANCH   5  15
BRANCH   4  31
HETATM   31  S           1     168.173 186.539 289.317  0.00  0.00    -0.105 SA
BRANCH  31  32
HETATM   32  C           1     168.822 185.419 290.590  0.00  0.00     0.119 C 
BRANCH  32  33
HETATM   33  C           1     170.050 186.017 291.201  0.00  0.00    -0.049 A 
HETATM   34  C           1     170.019 187.322 291.695  0.00  0.00     0.008 A 
HETATM   35  C           1     171.163 187.879 292.264  0.00  0.00     0.001 A 
HETATM   36  C           1     172.339 187.133 292.341  0.00  0.00     0.000 A 
HETATM   37  C           1     172.369 185.829 291.849  0.00  0.00     0.001 A 
HETATM   38  C           1     171.226 185.271 291.278  0.00  0.00     0.008 A 
ENDBRANCH  32  33
ENDBRANCH  31  32
ENDBRANCH   4  31
TORSDOF 9
ENDMDL
MODEL 8
REMARK VINA RESULT:      -8.4      9.024     13.463
REMARK  9 active torsions:
REMARK  status: ('A' for Active; 'I' for Inactive)
REMARK    1  A    between atoms: C_4  and  S_30 
REMARK    2  A    between atoms: C_5  and  C_7 
REMARK    3  A    between atoms: C_7  and  N_8 
REMARK    4  A    between atoms: N_8  and  C_9 
REMARK    5  A    between atoms: C_9  and  C_10 
REMARK    6  A    between atoms: C_10  and  C_11 
REMARK    7  A    between atoms: N_14  and  C_17 
REMARK    8  A    between atoms: S_30  and  C_37 
REMARK    9  A    between atoms: C_31  and  C_37 
ROOT
HETATM    1  C           1     175.752 185.390 271.262  0.00  0.00    -0.005 A 
HETATM    2  C           1     176.372 184.337 270.610  0.00  0.00     0.130 A 
HETATM    3  N           1     176.391 184.191 269.266  0.00  0.00    -0.253 NA
HETATM    4  C           1     175.760 185.144 268.546  0.00  0.00     0.101 A 
HETATM    5  C           1     175.113 186.233 269.107  0.00  0.00     0.006 A 
HETATM    6  C           1     175.112 186.356 270.492  0.00  0.00     0.025 A 
HETATM    7  C           1     175.770 185.477 272.596  0.00  0.00     0.014 A 
HETATM    8  C           1     174.650 185.095 273.334  0.00  0.00     0.130 A 
HETATM    9  C           1     174.668 185.186 274.726  0.00  0.00     0.085 A 
HETATM   10  C           1     175.807 185.658 275.380  0.00  0.00     0.119 A 
HETATM   11  C           1     176.926 186.039 274.641  0.00  0.00     0.043 A 
HETATM   12  C           1     176.908 185.949 273.249  0.00  0.00     0.018 A 
HETATM   13  F           1     175.824 185.744 276.697  0.00  0.00    -0.206 F 
HETATM   14  F           1     173.572 184.649 272.716  0.00  0.00    -0.205 F 
ENDROOT
BRANCH   5  15
HETATM   15  C           1     174.435 187.251 268.244  0.00  0.00     0.311 C 
BRANCH  15  16
HETATM   16  N           1     175.312 188.373 268.045  0.00  0.00     0.087 N 
HETATM   17  H           1     176.167 188.236 268.582  0.00  0.00     0.316 HD
BRANCH  16  18
HETATM   18  C           1     174.631 189.549 268.516  0.00  0.00     0.270 C 
BRANCH  18  19
HETATM   19  C           1     175.397 190.144 269.690  0.00  0.00     0.034 C 
BRANCH  19  20
HETATM   20  C           1     174.465 191.026 270.511  0.00  0.00    -0.010 C 
HETATM   21  C           1     173.935 190.226 271.696  0.00  0.00     0.035 C 
HETATM   22  C           1     173.152 191.115 272.659  0.00  0.00     0.273 C 
HETATM   23  N           1     173.954 192.255 273.109  0.00  0.00     0.093 N 
HETATM   24  C           1     174.402 193.072 271.980  0.00  0.00     0.273 C 
HETATM   25  C           1     175.231 192.253 270.993  0.00  0.00     0.035 C 
BRANCH  23  26
HETATM   26  C           1     173.078 193.064 273.913  0.00  0.00     0.223 C 
HETATM   27  C           1     171.799 193.395 273.159  0.00  0.00     0.036 C 
HETATM   28  C           1     170.723 193.560 274.232  0.00  0.00     0.002 C 
HETATM   29  C           1     171.338 193.058 275.537  0.00  0.00     0.002 C 
HETATM   30  C           1     172.582 192.288 275.121  0.00  0.00     0.036 C 
ENDBRANCH  23  26
ENDBRANCH  19  20
ENDBRANCH  18  19
ENDBRANCH  16  18
ENDBRANCH  15  16
ENDBRANCH   5  15
BRANCH   4  31
HETATM   31  S           1     175.760 184.988 266.738  0.00  0.00    -0.105 SA
BRANCH  31  32
HETATM   32  C           1     176.611 183.384 266.749  0.00  0.00     0.119 C 
BRANCH  32  33
HETATM   33  C           1     177.064 183.050 265.362  0.00  0.00    -0.049 A 
HETATM   34  C           1     176.748 183.900 264.301  0.00  0.00     0.008 A 
HETATM   35  C           1     177.170 183.589 263.009  0.00  0.00     0.001 A 
HETATM   36  C           1     177.907 182.428 262.776  0.00  0.00     0.000 A 
HETATM   37  C           1     178.224 181.579 263.837  0.00  0.00     0.001 A 
HETATM   38  C           1     177.802 181.890 265.129  0.00  0.00     0.008 A 
ENDBRANCH  32  33
ENDBRANCH  31  32
ENDBRANCH   4  31
TORSDOF 9
ENDMDL
MODEL 9
REMARK VINA RESULT:      -8.2      9.821     15.082
REMARK  9 active torsions:
REMARK  status: ('A' for Active; 'I' for Inactive)
REMARK    1  A    between atoms: C_4  and  S_30 
REMARK    2  A    between atoms: C_5  and  C_7 
REMARK    3  A    between atoms: C_7  and  N_8 
REMARK    4  A    between atoms: N_8  and  C_9 
REMARK    5  A    between atoms: C_9  and  C_10 
REMARK    6  A    between atoms: C_10  and  C_11 
REMARK    7  A    between atoms: N_14  and  C_17 
REMARK    8  A    between atoms: S_30  and  C_37 
REMARK    9  A    between atoms: C_31  and  C_37 
ROOT
HETATM    1  C           1     175.603 183.123 268.263  0.00  0.00    -0.005 A 
HETATM    2  C           1     175.950 182.586 269.492  0.00  0.00     0.130 A 
HETATM    3  N           1     175.527 183.080 270.676  0.00  0.00    -0.253 NA
HETATM    4  C           1     174.718 184.161 270.625  0.00  0.00     0.101 A 
HETATM    5  C           1     174.315 184.769 269.447  0.00  0.00     0.006 A 
HETATM    6  C           1     174.768 184.237 268.244  0.00  0.00     0.025 A 
HETATM    7  C           1     176.057 182.586 267.126  0.00  0.00     0.014 A 
HETATM    8  C           1     177.126 183.179 266.453  0.00  0.00     0.130 A 
HETATM    9  C           1     177.599 182.619 265.267  0.00  0.00     0.085 A 
HETATM   10  C           1     177.004 181.466 264.753  0.00  0.00     0.119 A 
HETATM   11  C           1     175.935 180.874 265.426  0.00  0.00     0.043 A 
HETATM   12  C           1     175.461 181.434 266.613  0.00  0.00     0.018 A 
HETATM   13  F           1     177.451 180.936 263.630  0.00  0.00    -0.206 F 
HETATM   14  F           1     177.688 184.269 266.939  0.00  0.00    -0.205 F 
ENDROOT
BRANCH   5  15
HETATM   15  C           1     173.417 185.965 269.467  0.00  0.00     0.311 C 
BRANCH  15  16
HETATM   16  N           1     173.575 186.706 268.245  0.00  0.00     0.087 N 
HETATM   17  H           1     173.920 186.085 267.514  0.00  0.00     0.316 HD
BRANCH  16  18
HETATM   18  C           1     174.537 187.747 268.486  0.00  0.00     0.270 C 
BRANCH  18  19
HETATM   19  C           1     174.205 188.957 267.622  0.00  0.00     0.034 C 
BRANCH  19  20
HETATM   20  C           1     174.130 190.201 268.497  0.00  0.00    -0.010 C 
HETATM   21  C           1     172.744 190.287 269.127  0.00  0.00     0.035 C 
HETATM   22  C           1     172.674 191.406 270.164  0.00  0.00     0.273 C 
HETATM   23  N           1     173.711 191.253 271.187  0.00  0.00     0.093 N 
HETATM   24  C           1     175.049 191.247 270.597  0.00  0.00     0.273 C 
HETATM   25  C           1     175.205 190.122 269.575  0.00  0.00     0.035 C 
BRANCH  23  26
HETATM   26  C           1     173.610 192.413 272.031  0.00  0.00     0.223 C 
HETATM   27  C           1     173.421 192.013 273.486  0.00  0.00     0.036 C 
HETATM   28  C           1     174.044 193.143 274.305  0.00  0.00     0.002 C 
HETATM   29  C           1     174.808 194.020 273.314  0.00  0.00     0.002 C 
HETATM   30  C           1     174.916 193.187 272.046  0.00  0.00     0.036 C 
ENDBRANCH  23  26
ENDBRANCH  19  20
ENDBRANCH  18  19
ENDBRANCH  16  18
ENDBRANCH  15  16
ENDBRANCH   5  15
BRANCH   4  31
HETATM   31  S           1     174.124 184.858 272.192  0.00  0.00    -0.105 SA
BRANCH  31  32
HETATM   32  C           1     175.534 185.989 272.370  0.00  0.00     0.119 C 
BRANCH  32  33
HETATM   33  C           1     176.149 185.810 273.723  0.00  0.00    -0.049 A 
HETATM   34  C           1     175.450 185.133 274.723  0.00  0.00     0.008 A 
HETATM   35  C           1     176.022 184.966 275.983  0.00  0.00     0.001 A 
HETATM   36  C           1     177.294 185.476 276.245  0.00  0.00     0.000 A 
HETATM   37  C           1     177.993 186.152 275.245  0.00  0.00     0.001 A 
HETATM   38  C           1     177.420 186.320 273.985  0.00  0.00     0.008 A 
ENDBRANCH  32  33
ENDBRANCH  31  32
ENDBRANCH   4  31
TORSDOF 9
ENDMDL
