MODEL 1
REMARK VINA RESULT:      -7.3      0.000      0.000
REMARK  8 active torsions:
REMARK  status: ('A' for Active; 'I' for Inactive)
REMARK    1  A    between atoms: C_4  and  S_20 
REMARK    2  A    between atoms: C_5  and  C_8 
REMARK    3  A    between atoms: C_8  and  N_9 
REMARK    4  A    between atoms: S_20  and  C_21 
REMARK    5  A    between atoms: C_21  and  C_22 
REMARK    6  A    between atoms: N_9  and  C_11 
REMARK    7  A    between atoms: C_11  and  C_12 
REMARK    8  A    between atoms: C_12  and  N_13 
ROOT
HETATM    1  C           1     173.531 189.269 283.541  0.00  0.00     0.137 A 
HETATM    2  C           1     172.987 189.694 282.340  0.00  0.00     0.029 A 
HETATM    3  N           1     174.389 188.230 283.650  0.00  0.00    -0.252 NA
HETATM    4  C           1     174.715 187.591 282.506  0.00  0.00     0.101 A 
HETATM    5  C           1     174.223 187.942 281.259  0.00  0.00     0.006 A 
HETATM    6  C           1     173.342 189.016 281.179  0.00  0.00     0.032 A 
HETATM    7 Br           1     171.799 191.151 282.282  0.00  0.00    -0.050 Br
ENDROOT
BRANCH   5   8
HETATM    8  C           1     174.629 187.188 280.033  0.00  0.00     0.311 C 
BRANCH   8   9
HETATM    9  N           1     173.482 186.521 279.476  0.00  0.00     0.089 N 
HETATM   10  H           1     173.376 185.605 279.913  0.00  0.00     0.316 HD
BRANCH   9  11
HETATM   11  C           1     173.713 186.357 278.067  0.00  0.00     0.300 C 
BRANCH  11  12
HETATM   12  C           1     175.100 186.878 277.715  0.00  0.00     0.302 C 
BRANCH  12  13
HETATM   13  N           1     175.606 186.165 276.574  0.00  0.00     0.093 N 
HETATM   14  C           1     174.438 185.661 275.830  0.00  0.00     0.302 C 
HETATM   15  C           1     174.808 185.093 274.443  0.00  0.00     0.302 C 
HETATM   16  N           1     175.544 186.055 273.605  0.00  0.00     0.087 N 
HETATM   17  C           1     176.033 185.329 272.464  0.00  0.00     0.310 C 
HETATM   18  C           1     176.712 186.559 274.348  0.00  0.00     0.302 C 
HETATM   19  C           1     176.343 187.128 275.736  0.00  0.00     0.302 C 
ENDBRANCH  12  13
ENDBRANCH  11  12
ENDBRANCH   9  11
ENDBRANCH   8   9
ENDBRANCH   5   8
BRANCH   4  20
HETATM   20  S           1     175.865 186.190 282.608  0.00  0.00    -0.105 SA
BRANCH  20  21
HETATM   21  C           1     174.545 184.952 282.736  0.00  0.00     0.119 C 
BRANCH  21  22
HETATM   22  C           1     174.028 184.916 284.140  0.00  0.00    -0.049 A 
HETATM   23  C           1     174.893 184.632 285.196  0.00  0.00     0.008 A 
HETATM   24  C           1     174.411 184.600 286.504  0.00  0.00     0.001 A 
HETATM   25  C           1     173.062 184.852 286.757  0.00  0.00     0.000 A 
HETATM   26  C           1     172.196 185.136 285.701  0.00  0.00     0.001 A 
HETATM   27  C           1     172.679 185.168 284.393  0.00  0.00     0.008 A 
ENDBRANCH  21  22
ENDBRANCH  20  21
ENDBRANCH   4  20
TORSDOF 8
ENDMDL
MODEL 2
REMARK VINA RESULT:      -6.9      8.157     11.359
REMARK  8 active torsions:
REMARK  status: ('A' for Active; 'I' for Inactive)
REMARK    1  A    between atoms: C_4  and  S_20 
REMARK    2  A    between atoms: C_5  and  C_8 
REMARK    3  A    between atoms: C_8  and  N_9 
REMARK    4  A    between atoms: S_20  and  C_21 
REMARK    5  A    between atoms: C_21  and  C_22 
REMARK    6  A    between atoms: N_9  and  C_11 
REMARK    7  A    between atoms: C_11  and  C_12 
REMARK    8  A    between atoms: C_12  and  N_13 
ROOT
HETATM    1  C           1     176.640 183.986 269.227  0.00  0.00     0.137 A 
HETATM    2  C           1     176.456 184.455 267.936  0.00  0.00     0.029 A 
HETATM    3  N           1     176.148 184.600 270.325  0.00  0.00    -0.252 NA
HETATM    4  C           1     175.440 185.732 270.121  0.00  0.00     0.101 A 
HETATM    5  C           1     175.203 186.278 268.869  0.00  0.00     0.006 A 
HETATM    6  C           1     175.723 185.623 267.757  0.00  0.00     0.032 A 
HETATM    7 Br           1     177.179 183.535 266.463  0.00  0.00    -0.050 Br
ENDROOT
BRANCH   5   8
HETATM    8  C           1     174.409 187.537 268.718  0.00  0.00     0.311 C 
BRANCH   8   9
HETATM    9  N           1     175.279 188.607 268.307  0.00  0.00     0.089 N 
HETATM   10  H           1     176.244 188.367 268.534  0.00  0.00     0.316 HD
BRANCH   9  11
HETATM   11  C           1     174.894 189.787 269.033  0.00  0.00     0.300 C 
BRANCH  11  12
HETATM   12  C           1     175.688 189.866 270.331  0.00  0.00     0.302 C 
BRANCH  12  13
HETATM   13  N           1     175.016 190.743 271.252  0.00  0.00     0.093 N 
HETATM   14  C           1     175.464 192.112 270.944  0.00  0.00     0.302 C 
HETATM   15  C           1     174.641 193.193 271.677  0.00  0.00     0.302 C 
HETATM   16  N           1     173.193 193.082 271.426  0.00  0.00     0.087 N 
HETATM   17  C           1     172.539 193.973 272.347  0.00  0.00     0.310 C 
HETATM   18  C           1     172.745 191.713 271.734  0.00  0.00     0.302 C 
HETATM   19  C           1     173.569 190.631 271.000  0.00  0.00     0.302 C 
ENDBRANCH  12  13
ENDBRANCH  11  12
ENDBRANCH   9  11
ENDBRANCH   8   9
ENDBRANCH   5   8
BRANCH   4  20
HETATM   20  S           1     174.760 186.589 271.569  0.00  0.00    -0.105 SA
BRANCH  20  21
HETATM   21  C           1     174.843 185.122 272.634  0.00  0.00     0.119 C 
BRANCH  21  22
HETATM   22  C           1     175.771 185.387 273.778  0.00  0.00    -0.049 A 
HETATM   23  C           1     176.943 186.116 273.572  0.00  0.00     0.008 A 
HETATM   24  C           1     177.807 186.363 274.638  0.00  0.00     0.001 A 
HETATM   25  C           1     177.501 185.880 275.911  0.00  0.00     0.000 A 
HETATM   26  C           1     176.330 185.151 276.117  0.00  0.00     0.001 A 
HETATM   27  C           1     175.466 184.904 275.050  0.00  0.00     0.008 A 
ENDBRANCH  21  22
ENDBRANCH  20  21
ENDBRANCH   4  20
TORSDOF 8
ENDMDL
MODEL 3
REMARK VINA RESULT:      -6.9      5.742      8.966
REMARK  8 active torsions:
REMARK  status: ('A' for Active; 'I' for Inactive)
REMARK    1  A    between atoms: C_4  and  S_20 
REMARK    2  A    between atoms: C_5  and  C_8 
REMARK    3  A    between atoms: C_8  and  N_9 
REMARK    4  A    between atoms: S_20  and  C_21 
REMARK    5  A    between atoms: C_21  and  C_22 
REMARK    6  A    between atoms: N_9  and  C_11 
REMARK    7  A    between atoms: C_11  and  C_12 
REMARK    8  A    between atoms: C_12  and  N_13 
ROOT
HETATM    1  C           1     168.149 188.987 289.067  0.00  0.00     0.137 A 
HETATM    2  C           1     168.271 188.397 287.819  0.00  0.00     0.029 A 
HETATM    3  N           1     168.357 188.332 290.230  0.00  0.00    -0.252 NA
HETATM    4  C           1     168.704 187.030 290.138  0.00  0.00     0.101 A 
HETATM    5  C           1     168.851 186.353 288.938  0.00  0.00     0.006 A 
HETATM    6  C           1     168.630 187.055 287.757  0.00  0.00     0.032 A 
HETATM    7 Br           1     167.962 189.387 286.249  0.00  0.00    -0.050 Br
ENDROOT
BRANCH   5   8
HETATM    8  C           1     169.237 184.908 288.912  0.00  0.00     0.311 C 
BRANCH   8   9
HETATM    9  N           1     170.652 184.793 288.674  0.00  0.00     0.089 N 
HETATM   10  H           1     171.113 185.663 288.941  0.00  0.00     0.316 HD
BRANCH   9  11
HETATM   11  C           1     170.841 184.562 287.267  0.00  0.00     0.300 C 
BRANCH  11  12
HETATM   12  C           1     172.273 184.911 286.884  0.00  0.00     0.302 C 
BRANCH  12  13
HETATM   13  N           1     172.272 185.658 285.655  0.00  0.00     0.093 N 
HETATM   14  C           1     172.348 187.084 286.019  0.00  0.00     0.302 C 
HETATM   15  C           1     172.613 188.001 284.806  0.00  0.00     0.302 C 
HETATM   16  N           1     173.821 187.623 284.052  0.00  0.00     0.087 N 
HETATM   17  C           1     173.810 188.387 282.833  0.00  0.00     0.310 C 
HETATM   18  C           1     173.745 186.198 283.687  0.00  0.00     0.302 C 
HETATM   19  C           1     173.480 185.280 284.901  0.00  0.00     0.302 C 
ENDBRANCH  12  13
ENDBRANCH  11  12
ENDBRANCH   9  11
ENDBRANCH   8   9
ENDBRANCH   5   8
BRANCH   4  20
HETATM   20  S           1     168.993 186.112 291.677  0.00  0.00    -0.105 SA
BRANCH  20  21
HETATM   21  C           1     170.406 187.136 292.172  0.00  0.00     0.119 C 
BRANCH  21  22
HETATM   22  C           1     171.642 186.653 291.478  0.00  0.00    -0.049 A 
HETATM   23  C           1     172.231 185.448 291.860  0.00  0.00     0.008 A 
HETATM   24  C           1     173.381 184.997 291.213  0.00  0.00     0.001 A 
HETATM   25  C           1     173.943 185.753 290.182  0.00  0.00     0.000 A 
HETATM   26  C           1     173.353 186.958 289.800  0.00  0.00     0.001 A 
HETATM   27  C           1     172.203 187.408 290.448  0.00  0.00     0.008 A 
ENDBRANCH  21  22
ENDBRANCH  20  21
ENDBRANCH   4  20
TORSDOF 8
ENDMDL
MODEL 4
REMARK VINA RESULT:      -6.8      2.580      8.830
REMARK  8 active torsions:
REMARK  status: ('A' for Active; 'I' for Inactive)
REMARK    1  A    between atoms: C_4  and  S_20 
REMARK    2  A    between atoms: C_5  and  C_8 
REMARK    3  A    between atoms: C_8  and  N_9 
REMARK    4  A    between atoms: S_20  and  C_21 
REMARK    5  A    between atoms: C_21  and  C_22 
REMARK    6  A    between atoms: N_9  and  C_11 
REMARK    7  A    between atoms: C_11  and  C_12 
REMARK    8  A    between atoms: C_12  and  N_13 
ROOT
HETATM    1  C           1     171.349 189.175 280.374  0.00  0.00     0.137 A 
HETATM    2  C           1     172.044 189.297 281.566  0.00  0.00     0.029 A 
HETATM    3  N           1     171.468 188.117 279.542  0.00  0.00    -0.252 NA
HETATM    4  C           1     172.319 187.139 279.921  0.00  0.00     0.101 A 
HETATM    5  C           1     173.057 187.172 281.094  0.00  0.00     0.006 A 
HETATM    6  C           1     172.914 188.275 281.930  0.00  0.00     0.032 A 
HETATM    7 Br           1     171.817 190.808 282.665  0.00  0.00    -0.050 Br
ENDROOT
BRANCH   5   8
HETATM    8  C           1     173.983 186.052 281.451  0.00  0.00     0.311 C 
BRANCH   8   9
HETATM    9  N           1     173.261 185.047 282.185  0.00  0.00     0.089 N 
HETATM   10  H           1     172.259 185.218 282.099  0.00  0.00     0.316 HD
BRANCH   9  11
HETATM   11  C           1     173.649 185.152 283.566  0.00  0.00     0.300 C 
BRANCH  11  12
HETATM   12  C           1     172.407 185.320 284.431  0.00  0.00     0.302 C 
BRANCH  12  13
HETATM   13  N           1     172.744 185.078 285.808  0.00  0.00     0.093 N 
HETATM   14  C           1     174.141 185.508 285.989  0.00  0.00     0.302 C 
HETATM   15  C           1     174.570 185.550 287.472  0.00  0.00     0.302 C 
HETATM   16  N           1     173.687 186.387 288.303  0.00  0.00     0.087 N 
HETATM   17  C           1     174.044 186.141 289.674  0.00  0.00     0.310 C 
HETATM   18  C           1     172.289 185.957 288.121  0.00  0.00     0.302 C 
HETATM   19  C           1     171.860 185.915 286.638  0.00  0.00     0.302 C 
ENDBRANCH  12  13
ENDBRANCH  11  12
ENDBRANCH   9  11
ENDBRANCH   8   9
ENDBRANCH   5   8
BRANCH   4  20
HETATM   20  S           1     172.509 185.700 278.832  0.00  0.00    -0.105 SA
BRANCH  20  21
HETATM   21  C           1     172.888 186.699 277.366  0.00  0.00     0.119 C 
BRANCH  21  22
HETATM   22  C           1     174.204 186.270 276.796  0.00  0.00    -0.049 A 
HETATM   23  C           1     174.243 185.373 275.728  0.00  0.00     0.008 A 
HETATM   24  C           1     175.469 184.974 275.196  0.00  0.00     0.001 A 
HETATM   25  C           1     176.657 185.471 275.733  0.00  0.00     0.000 A 
HETATM   26  C           1     176.618 186.368 276.801  0.00  0.00     0.001 A 
HETATM   27  C           1     175.392 186.766 277.333  0.00  0.00     0.008 A 
ENDBRANCH  21  22
ENDBRANCH  20  21
ENDBRANCH   4  20
TORSDOF 8
ENDMDL
MODEL 5
REMARK VINA RESULT:      -6.8      2.654      8.747
REMARK  8 active torsions:
REMARK  status: ('A' for Active; 'I' for Inactive)
REMARK    1  A    between atoms: C_4  and  S_20 
REMARK    2  A    between atoms: C_5  and  C_8 
REMARK    3  A    between atoms: C_8  and  N_9 
REMARK    4  A    between atoms: S_20  and  C_21 
REMARK    5  A    between atoms: C_21  and  C_22 
REMARK    6  A    between atoms: N_9  and  C_11 
REMARK    7  A    between atoms: C_11  and  C_12 
REMARK    8  A    between atoms: C_12  and  N_13 
ROOT
HETATM    1  C           1     170.569 187.038 276.568  0.00  0.00     0.137 A 
HETATM    2  C           1     169.780 187.265 277.684  0.00  0.00     0.029 A 
HETATM    3  N           1     171.904 186.834 276.622  0.00  0.00    -0.252 NA
HETATM    4  C           1     172.471 186.856 277.847  0.00  0.00     0.101 A 
HETATM    5  C           1     171.766 187.075 279.020  0.00  0.00     0.006 A 
HETATM    6  C           1     170.393 187.283 278.932  0.00  0.00     0.032 A 
HETATM    7 Br           1     167.926 187.542 277.514  0.00  0.00    -0.050 Br
ENDROOT
BRANCH   5   8
HETATM    8  C           1     172.461 187.087 280.344  0.00  0.00     0.311 C 
BRANCH   8   9
HETATM    9  N           1     172.651 185.735 280.800  0.00  0.00     0.089 N 
HETATM   10  H           1     171.804 185.413 281.268  0.00  0.00     0.316 HD
BRANCH   9  11
HETATM   11  C           1     173.744 185.738 281.734  0.00  0.00     0.300 C 
BRANCH  11  12
HETATM   12  C           1     173.889 187.127 282.342  0.00  0.00     0.302 C 
BRANCH  12  13
HETATM   13  N           1     173.961 187.019 283.774  0.00  0.00     0.093 N 
HETATM   14  C           1     172.591 186.773 284.256  0.00  0.00     0.302 C 
HETATM   15  C           1     172.539 186.380 285.748  0.00  0.00     0.302 C 
HETATM   16  N           1     173.387 185.218 286.067  0.00  0.00     0.087 N 
HETATM   17  C           1     173.439 185.118 287.501  0.00  0.00     0.310 C 
HETATM   18  C           1     174.757 185.463 285.585  0.00  0.00     0.302 C 
HETATM   19  C           1     174.809 185.856 284.092  0.00  0.00     0.302 C 
ENDBRANCH  12  13
ENDBRANCH  11  12
ENDBRANCH   9  11
ENDBRANCH   8   9
ENDBRANCH   5   8
BRANCH   4  20
HETATM   20  S           1     174.262 186.585 277.965  0.00  0.00    -0.105 SA
BRANCH  20  21
HETATM   21  C           1     174.344 185.612 276.436  0.00  0.00     0.119 C 
BRANCH  21  22
HETATM   22  C           1     175.668 185.834 275.773  0.00  0.00    -0.049 A 
HETATM   23  C           1     175.727 186.104 274.406  0.00  0.00     0.008 A 
HETATM   24  C           1     176.961 186.311 273.789  0.00  0.00     0.001 A 
HETATM   25  C           1     178.136 186.247 274.539  0.00  0.00     0.000 A 
HETATM   26  C           1     178.076 185.977 275.906  0.00  0.00     0.001 A 
HETATM   27  C           1     176.842 185.769 276.522  0.00  0.00     0.008 A 
ENDBRANCH  21  22
ENDBRANCH  20  21
ENDBRANCH   4  20
TORSDOF 8
ENDMDL
MODEL 6
REMARK VINA RESULT:      -6.6      7.741     11.939
REMARK  8 active torsions:
REMARK  status: ('A' for Active; 'I' for Inactive)
REMARK    1  A    between atoms: C_4  and  S_20 
REMARK    2  A    between atoms: C_5  and  C_8 
REMARK    3  A    between atoms: C_8  and  N_9 
REMARK    4  A    between atoms: S_20  and  C_21 
REMARK    5  A    between atoms: C_21  and  C_22 
REMARK    6  A    between atoms: N_9  and  C_11 
REMARK    7  A    between atoms: C_11  and  C_12 
REMARK    8  A    between atoms: C_12  and  N_13 
ROOT
HETATM    1  C           1     174.606 188.544 270.421  0.00  0.00     0.137 A 
HETATM    2  C           1     174.596 188.564 269.035  0.00  0.00     0.029 A 
HETATM    3  N           1     174.932 187.457 271.153  0.00  0.00    -0.252 NA
HETATM    4  C           1     175.262 186.341 270.468  0.00  0.00     0.101 A 
HETATM    5  C           1     175.281 186.263 269.084  0.00  0.00     0.006 A 
HETATM    6  C           1     174.941 187.400 268.357  0.00  0.00     0.032 A 
HETATM    7 Br           1     174.128 190.126 268.096  0.00  0.00    -0.050 Br
ENDROOT
BRANCH   5   8
HETATM    8  C           1     175.658 184.992 268.391  0.00  0.00     0.311 C 
BRANCH   8   9
HETATM    9  N           1     176.863 185.198 267.631  0.00  0.00     0.089 N 
HETATM   10  H           1     176.718 185.956 266.964  0.00  0.00     0.316 HD
BRANCH   9  11
HETATM   11  C           1     177.144 183.980 266.920  0.00  0.00     0.300 C 
BRANCH  11  12
HETATM   12  C           1     175.873 183.483 266.242  0.00  0.00     0.302 C 
BRANCH  12  13
HETATM   13  N           1     176.208 182.867 264.987  0.00  0.00     0.093 N 
HETATM   14  C           1     176.644 183.945 264.082  0.00  0.00     0.302 C 
HETATM   15  C           1     177.279 183.416 262.779  0.00  0.00     0.302 C 
HETATM   16  N           1     178.402 182.492 263.019  0.00  0.00     0.087 N 
HETATM   17  C           1     178.731 181.894 261.753  0.00  0.00     0.310 C 
HETATM   18  C           1     177.966 181.414 263.923  0.00  0.00     0.302 C 
HETATM   19  C           1     177.331 181.943 265.228  0.00  0.00     0.302 C 
ENDBRANCH  12  13
ENDBRANCH  11  12
ENDBRANCH   9  11
ENDBRANCH   8   9
ENDBRANCH   5   8
BRANCH   4  20
HETATM   20  S           1     175.707 184.857 271.413  0.00  0.00    -0.105 SA
BRANCH  20  21
HETATM   21  C           1     174.895 185.426 272.932  0.00  0.00     0.119 C 
BRANCH  21  22
HETATM   22  C           1     175.913 185.565 274.021  0.00  0.00    -0.049 A 
HETATM   23  C           1     177.110 186.238 273.776  0.00  0.00     0.008 A 
HETATM   24  C           1     178.058 186.368 274.790  0.00  0.00     0.001 A 
HETATM   25  C           1     177.809 185.825 276.051  0.00  0.00     0.000 A 
HETATM   26  C           1     176.612 185.152 276.297  0.00  0.00     0.001 A 
HETATM   27  C           1     175.665 185.022 275.281  0.00  0.00     0.008 A 
ENDBRANCH  21  22
ENDBRANCH  20  21
ENDBRANCH   4  20
TORSDOF 8
ENDMDL
MODEL 7
REMARK VINA RESULT:      -6.5      7.256     10.759
REMARK  8 active torsions:
REMARK  status: ('A' for Active; 'I' for Inactive)
REMARK    1  A    between atoms: C_4  and  S_20 
REMARK    2  A    between atoms: C_5  and  C_8 
REMARK    3  A    between atoms: C_8  and  N_9 
REMARK    4  A    between atoms: S_20  and  C_21 
REMARK    5  A    between atoms: C_21  and  C_22 
REMARK    6  A    between atoms: N_9  and  C_11 
REMARK    7  A    between atoms: C_11  and  C_12 
REMARK    8  A    between atoms: C_12  and  N_13 
ROOT
HETATM    1  C           1     175.292 185.098 275.533  0.00  0.00     0.137 A 
HETATM    2  C           1     176.516 185.708 275.309  0.00  0.00     0.029 A 
HETATM    3  N           1     174.255 185.159 274.669  0.00  0.00    -0.252 NA
HETATM    4  C           1     174.452 185.861 273.533  0.00  0.00     0.101 A 
HETATM    5  C           1     175.639 186.505 273.221  0.00  0.00     0.006 A 
HETATM    6  C           1     176.689 186.424 274.130  0.00  0.00     0.032 A 
HETATM    7 Br           1     177.907 185.571 276.569  0.00  0.00    -0.050 Br
ENDROOT
BRANCH   5   8
HETATM    8  C           1     175.787 187.266 271.941  0.00  0.00     0.311 C 
BRANCH   8   9
HETATM    9  N           1     175.963 188.664 272.231  0.00  0.00     0.089 N 
HETATM   10  H           1     175.518 188.885 273.121  0.00  0.00     0.316 HD
BRANCH   9  11
HETATM   11  C           1     175.328 189.412 271.179  0.00  0.00     0.300 C 
BRANCH  11  12
HETATM   12  C           1     175.063 188.494 269.992  0.00  0.00     0.302 C 
BRANCH  12  13
HETATM   13  N           1     174.308 189.203 268.996  0.00  0.00     0.093 N 
HETATM   14  C           1     173.699 188.190 268.116  0.00  0.00     0.302 C 
HETATM   15  C           1     172.652 188.783 267.150  0.00  0.00     0.302 C 
HETATM   16  N           1     171.589 189.533 267.843  0.00  0.00     0.087 N 
HETATM   17  C           1     170.838 190.227 266.832  0.00  0.00     0.310 C 
HETATM   18  C           1     172.198 190.546 268.722  0.00  0.00     0.302 C 
HETATM   19  C           1     173.246 189.953 269.689  0.00  0.00     0.302 C 
ENDBRANCH  12  13
ENDBRANCH  11  12
ENDBRANCH   9  11
ENDBRANCH   8   9
ENDBRANCH   5   8
BRANCH   4  20
HETATM   20  S           1     173.084 185.968 272.345  0.00  0.00    -0.105 SA
BRANCH  20  21
HETATM   21  C           1     173.173 184.213 271.891  0.00  0.00     0.119 C 
BRANCH  21  22
HETATM   22  C           1     174.295 184.004 270.923  0.00  0.00    -0.049 A 
HETATM   23  C           1     175.301 183.082 271.210  0.00  0.00     0.008 A 
HETATM   24  C           1     176.346 182.886 270.307  0.00  0.00     0.001 A 
HETATM   25  C           1     176.385 183.612 269.116  0.00  0.00     0.000 A 
HETATM   26  C           1     175.378 184.534 268.829  0.00  0.00     0.001 A 
HETATM   27  C           1     174.334 184.730 269.733  0.00  0.00     0.008 A 
ENDBRANCH  21  22
ENDBRANCH  20  21
ENDBRANCH   4  20
TORSDOF 8
ENDMDL
MODEL 8
REMARK VINA RESULT:      -6.4      7.748     11.719
REMARK  8 active torsions:
REMARK  status: ('A' for Active; 'I' for Inactive)
REMARK    1  A    between atoms: C_4  and  S_20 
REMARK    2  A    between atoms: C_5  and  C_8 
REMARK    3  A    between atoms: C_8  and  N_9 
REMARK    4  A    between atoms: S_20  and  C_21 
REMARK    5  A    between atoms: C_21  and  C_22 
REMARK    6  A    between atoms: N_9  and  C_11 
REMARK    7  A    between atoms: C_11  and  C_12 
REMARK    8  A    between atoms: C_12  and  N_13 
ROOT
HETATM    1  C           1     174.092 188.065 270.321  0.00  0.00     0.137 A 
HETATM    2  C           1     174.489 188.092 268.993  0.00  0.00     0.029 A 
HETATM    3  N           1     174.324 187.026 271.153  0.00  0.00    -0.252 NA
HETATM    4  C           1     174.983 185.968 270.632  0.00  0.00     0.101 A 
HETATM    5  C           1     175.420 185.902 269.318  0.00  0.00     0.006 A 
HETATM    6  C           1     175.166 186.988 268.486  0.00  0.00     0.032 A 
HETATM    7 Br           1     174.123 189.583 267.906  0.00  0.00    -0.050 Br
ENDROOT
BRANCH   5   8
HETATM    8  C           1     176.145 184.696 268.809  0.00  0.00     0.311 C 
BRANCH   8   9
HETATM    9  N           1     177.134 185.101 267.846  0.00  0.00     0.089 N 
HETATM   10  H           1     176.857 185.989 267.428  0.00  0.00     0.316 HD
BRANCH   9  11
HETATM   11  C           1     177.192 184.088 266.827  0.00  0.00     0.300 C 
BRANCH  11  12
HETATM   12  C           1     175.778 183.663 266.453  0.00  0.00     0.302 C 
BRANCH  12  13
HETATM   13  N           1     175.310 184.465 265.356  0.00  0.00     0.093 N 
HETATM   14  C           1     175.459 183.653 264.136  0.00  0.00     0.302 C 
HETATM   15  C           1     174.764 184.278 262.908  0.00  0.00     0.302 C 
HETATM   16  N           1     173.336 184.561 263.137  0.00  0.00     0.087 N 
HETATM   17  C           1     172.882 185.354 262.026  0.00  0.00     0.310 C 
HETATM   18  C           1     173.186 185.373 264.357  0.00  0.00     0.302 C 
HETATM   19  C           1     173.882 184.747 265.586  0.00  0.00     0.302 C 
ENDBRANCH  12  13
ENDBRANCH  11  12
ENDBRANCH   9  11
ENDBRANCH   8   9
ENDBRANCH   5   8
BRANCH   4  20
HETATM   20  S           1     175.316 184.551 271.716  0.00  0.00    -0.105 SA
BRANCH  20  21
HETATM   21  C           1     174.711 185.387 273.208  0.00  0.00     0.119 C 
BRANCH  21  22
HETATM   22  C           1     175.834 185.541 274.185  0.00  0.00    -0.049 A 
HETATM   23  C           1     176.977 186.256 273.827  0.00  0.00     0.008 A 
HETATM   24  C           1     178.023 186.401 274.738  0.00  0.00     0.001 A 
HETATM   25  C           1     177.927 185.829 276.007  0.00  0.00     0.000 A 
HETATM   26  C           1     176.784 185.114 276.365  0.00  0.00     0.001 A 
HETATM   27  C           1     175.738 184.970 275.453  0.00  0.00     0.008 A 
ENDBRANCH  21  22
ENDBRANCH  20  21
ENDBRANCH   4  20
TORSDOF 8
ENDMDL
MODEL 9
REMARK VINA RESULT:      -6.4      5.567      7.202
REMARK  8 active torsions:
REMARK  status: ('A' for Active; 'I' for Inactive)
REMARK    1  A    between atoms: C_4  and  S_20 
REMARK    2  A    between atoms: C_5  and  C_8 
REMARK    3  A    between atoms: C_8  and  N_9 
REMARK    4  A    between atoms: S_20  and  C_21 
REMARK    5  A    between atoms: C_21  and  C_22 
REMARK    6  A    between atoms: N_9  and  C_11 
REMARK    7  A    between atoms: C_11  and  C_12 
REMARK    8  A    between atoms: C_12  and  N_13 
ROOT
HETATM    1  C           1     175.020 185.445 284.982  0.00  0.00     0.137 A 
HETATM    2  C           1     175.064 186.179 283.807  0.00  0.00     0.029 A 
HETATM    3  N           1     174.047 185.575 285.911  0.00  0.00    -0.252 NA
HETATM    4  C           1     173.077 186.478 285.651  0.00  0.00     0.101 A 
HETATM    5  C           1     173.035 187.257 284.506  0.00  0.00     0.006 A 
HETATM    6  C           1     174.051 187.101 283.568  0.00  0.00     0.032 A 
HETATM    7 Br           1     176.458 185.934 282.568  0.00  0.00    -0.050 Br
ENDROOT
BRANCH   5   8
HETATM    8  C           1     171.928 188.238 284.284  0.00  0.00     0.311 C 
BRANCH   8   9
HETATM    9  N           1     171.984 188.729 282.933  0.00  0.00     0.089 N 
HETATM   10  H           1     172.806 188.346 282.466  0.00  0.00     0.316 HD
BRANCH   9  11
HETATM   11  C           1     172.091 190.162 282.993  0.00  0.00     0.300 C 
BRANCH  11  12
HETATM   12  C           1     172.698 190.681 281.695  0.00  0.00     0.302 C 
BRANCH  12  13
HETATM   13  N           1     171.941 191.811 281.230  0.00  0.00     0.093 N 
HETATM   14  C           1     171.016 191.312 280.196  0.00  0.00     0.302 C 
HETATM   15  C           1     169.959 192.357 279.780  0.00  0.00     0.302 C 
HETATM   16  N           1     169.184 192.878 280.920  0.00  0.00     0.087 N 
HETATM   17  C           1     168.426 193.999 280.435  0.00  0.00     0.310 C 
HETATM   18  C           1     170.109 193.376 281.954  0.00  0.00     0.302 C 
HETATM   19  C           1     171.166 192.331 282.370  0.00  0.00     0.302 C 
ENDBRANCH  12  13
ENDBRANCH  11  12
ENDBRANCH   9  11
ENDBRANCH   8   9
ENDBRANCH   5   8
BRANCH   4  20
HETATM   20  S           1     171.750 186.682 286.873  0.00  0.00    -0.105 SA
BRANCH  20  21
HETATM   21  C           1     172.757 187.705 287.983  0.00  0.00     0.119 C 
BRANCH  21  22
HETATM   22  C           1     172.597 187.222 289.390  0.00  0.00    -0.049 A 
HETATM   23  C           1     173.212 186.036 289.795  0.00  0.00     0.008 A 
HETATM   24  C           1     173.064 185.586 291.107  0.00  0.00     0.001 A 
HETATM   25  C           1     172.300 186.321 292.014  0.00  0.00     0.000 A 
HETATM   26  C           1     171.686 187.506 291.610  0.00  0.00     0.001 A 
HETATM   27  C           1     171.834 187.956 290.298  0.00  0.00     0.008 A 
ENDBRANCH  21  22
ENDBRANCH  20  21
ENDBRANCH   4  20
TORSDOF 8
ENDMDL
