MODEL 1
REMARK VINA RESULT:      -9.0      0.000      0.000
REMARK  11 active torsions:
REMARK  status: ('A' for Active; 'I' for Inactive)
REMARK    1  A    between atoms: C_1  and  C_19 
REMARK    2  A    between atoms: C_5  and  S_29 
REMARK    3  A    between atoms: C_6  and  C_8 
REMARK    4  A    between atoms: C_8  and  N_9 
REMARK    5  A    between atoms: N_9  and  C_10 
REMARK    6  A    between atoms: C_10  and  C_11 
REMARK    7  A    between atoms: C_11  and  C_12 
REMARK    8  A    between atoms: N_15  and  C_18 
REMARK    9  A    between atoms: C_22  and  O_37 
REMARK   10  A    between atoms: S_29  and  C_36 
REMARK   11  A    between atoms: C_30  and  C_36 
ROOT
HETATM    1  C           1     171.636 189.320 281.028  0.00  0.00    -0.010 A 
HETATM    2  C           1     170.849 188.983 279.938  0.00  0.00     0.101 A 
HETATM    3  N           1     171.081 187.913 279.147  0.00  0.00    -0.359 N 
ATOM      4  HN          1     170.480 187.694 278.352  1.00  0.00     0.166 HD
HETATM    5  C           1     172.148 187.147 279.461  0.00  0.00     0.077 A 
HETATM    6  C           1     172.992 187.403 280.531  0.00  0.00     0.004 A 
HETATM    7  C           1     172.728 188.512 281.327  0.00  0.00     0.025 A 
ENDROOT
BRANCH   6   8
HETATM    8  C           1     174.158 186.508 280.821  0.00  0.00     0.311 C 
BRANCH   8   9
HETATM    9  N           1     175.043 187.159 281.748  0.00  0.00     0.087 N 
HETATM   10  H           1     175.762 187.667 281.232  0.00  0.00     0.316 HD
BRANCH   9  11
HETATM   11  C           1     175.661 186.138 282.550  0.00  0.00     0.270 C 
BRANCH  11  12
HETATM   12  C           1     174.727 184.939 282.653  0.00  0.00     0.034 C 
BRANCH  12  13
HETATM   13  C           1     174.215 184.815 284.083  0.00  0.00    -0.010 C 
HETATM   14  C           1     175.183 185.524 285.025  0.00  0.00     0.035 C 
HETATM   15  C           1     174.621 185.599 286.443  0.00  0.00     0.273 C 
HETATM   16  N           1     173.304 186.236 286.464  0.00  0.00     0.093 N 
HETATM   17  C           1     172.347 185.517 285.622  0.00  0.00     0.273 C 
HETATM   18  C           1     172.826 185.439 284.173  0.00  0.00     0.035 C 
BRANCH  16  19
HETATM   19  C           1     172.843 186.149 287.823  0.00  0.00     0.223 C 
HETATM   20  C           1     173.906 185.537 288.721  0.00  0.00     0.036 C 
HETATM   21  C           1     173.669 186.140 290.106  0.00  0.00     0.002 C 
HETATM   22  C           1     172.662 187.272 289.914  0.00  0.00     0.002 C 
HETATM   23  C           1     172.635 187.532 288.416  0.00  0.00     0.036 C 
ENDBRANCH  16  19
ENDBRANCH  12  13
ENDBRANCH  11  12
ENDBRANCH   9  11
ENDBRANCH   8   9
ENDBRANCH   6   8
BRANCH   5  24
HETATM   24  S           1     172.496 185.698 278.425  0.00  0.00    -0.107 SA
BRANCH  24  25
HETATM   25  C           1     173.043 186.687 277.005  0.00  0.00     0.119 C 
BRANCH  25  26
HETATM   26  C           1     174.421 186.261 276.601  0.00  0.00    -0.049 A 
HETATM   27  C           1     175.535 186.801 277.243  0.00  0.00     0.008 A 
HETATM   28  C           1     176.818 186.404 276.866  0.00  0.00     0.001 A 
HETATM   29  C           1     176.987 185.467 275.846  0.00  0.00     0.000 A 
HETATM   30  C           1     175.872 184.927 275.204  0.00  0.00     0.001 A 
HETATM   31  C           1     174.589 185.324 275.582  0.00  0.00     0.008 A 
ENDBRANCH  25  26
ENDBRANCH  24  25
ENDBRANCH   5  24
BRANCH   1  32
HETATM   32  C           1     171.353 190.394 281.772  0.00  0.00    -0.024 A 
HETATM   33  C           1     172.038 191.591 281.560  0.00  0.00     0.015 A 
HETATM   34  C           1     171.743 192.711 282.336  0.00  0.00     0.037 A 
HETATM   35  C           1     170.763 192.635 283.325  0.00  0.00     0.068 A 
HETATM   36  C           1     170.078 191.438 283.539  0.00  0.00     0.037 A 
HETATM   37  C           1     170.373 190.319 282.762  0.00  0.00     0.015 A 
BRANCH  35  38
HETATM   38  O           1     170.476 193.724 284.080  0.00  0.00    -0.356 OA
HETATM   39  C           1     169.434 193.447 284.977  0.00  0.00     0.210 C 
ENDBRANCH  35  38
ENDBRANCH   1  32
TORSDOF 11
ENDMDL
MODEL 2
REMARK VINA RESULT:      -8.5      6.351     10.782
REMARK  11 active torsions:
REMARK  status: ('A' for Active; 'I' for Inactive)
REMARK    1  A    between atoms: C_1  and  C_19 
REMARK    2  A    between atoms: C_5  and  S_29 
REMARK    3  A    between atoms: C_6  and  C_8 
REMARK    4  A    between atoms: C_8  and  N_9 
REMARK    5  A    between atoms: N_9  and  C_10 
REMARK    6  A    between atoms: C_10  and  C_11 
REMARK    7  A    between atoms: C_11  and  C_12 
REMARK    8  A    between atoms: N_15  and  C_18 
REMARK    9  A    between atoms: C_22  and  O_37 
REMARK   10  A    between atoms: S_29  and  C_36 
REMARK   11  A    between atoms: C_30  and  C_36 
ROOT
HETATM    1  C           1     175.543 185.499 272.409  0.00  0.00    -0.010 A 
HETATM    2  C           1     176.195 184.857 271.367  0.00  0.00     0.101 A 
HETATM    3  N           1     175.681 184.732 270.124  0.00  0.00    -0.359 N 
ATOM      4  HN          1     176.189 184.254 269.380  1.00  0.00     0.166 HD
HETATM    5  C           1     174.461 185.273 269.915  0.00  0.00     0.077 A 
HETATM    6  C           1     173.733 185.932 270.893  0.00  0.00     0.004 A 
HETATM    7  C           1     174.288 186.046 272.163  0.00  0.00     0.025 A 
ENDROOT
BRANCH   6   8
HETATM    8  C           1     172.384 186.508 270.590  0.00  0.00     0.311 C 
BRANCH   8   9
HETATM    9  N           1     172.428 187.938 270.737  0.00  0.00     0.087 N 
HETATM   10  H           1     173.362 188.220 271.035  0.00  0.00     0.316 HD
BRANCH   9  11
HETATM   11  C           1     171.472 188.302 271.747  0.00  0.00     0.270 C 
BRANCH  11  12
HETATM   12  C           1     172.080 189.356 272.664  0.00  0.00     0.034 C 
BRANCH  12  13
HETATM   13  C           1     172.129 188.821 274.090  0.00  0.00    -0.010 C 
HETATM   14  C           1     171.168 187.642 274.216  0.00  0.00     0.035 C 
HETATM   15  C           1     171.321 186.946 275.568  0.00  0.00     0.273 C 
HETATM   16  N           1     172.703 186.527 275.801  0.00  0.00     0.093 N 
HETATM   17  C           1     173.622 187.665 275.757  0.00  0.00     0.273 C 
HETATM   18  C           1     173.555 188.387 274.413  0.00  0.00     0.035 C 
BRANCH  16  19
HETATM   19  C           1     172.735 185.990 277.134  0.00  0.00     0.223 C 
HETATM   20  C           1     173.785 186.693 277.980  0.00  0.00     0.036 C 
HETATM   21  C           1     173.268 186.621 279.417  0.00  0.00     0.002 C 
HETATM   22  C           1     171.826 186.125 279.331  0.00  0.00     0.002 C 
HETATM   23  C           1     171.438 186.283 277.869  0.00  0.00     0.036 C 
ENDBRANCH  16  19
ENDBRANCH  12  13
ENDBRANCH  11  12
ENDBRANCH   9  11
ENDBRANCH   8   9
ENDBRANCH   6   8
BRANCH   5  24
HETATM   24  S           1     173.732 185.127 268.259  0.00  0.00    -0.107 SA
BRANCH  24  25
HETATM   25  C           1     174.828 186.376 267.530  0.00  0.00     0.119 C 
BRANCH  25  26
HETATM   26  C           1     174.145 187.709 267.543  0.00  0.00    -0.049 A 
HETATM   27  C           1     174.796 188.820 268.079  0.00  0.00     0.008 A 
HETATM   28  C           1     174.159 190.062 268.092  0.00  0.00     0.001 A 
HETATM   29  C           1     172.873 190.191 267.568  0.00  0.00     0.000 A 
HETATM   30  C           1     172.222 189.080 267.032  0.00  0.00     0.001 A 
HETATM   31  C           1     172.860 187.838 267.019  0.00  0.00     0.008 A 
ENDBRANCH  25  26
ENDBRANCH  24  25
ENDBRANCH   5  24
BRANCH   1  32
HETATM   32  C           1     176.107 185.589 273.617  0.00  0.00    -0.024 A 
HETATM   33  C           1     177.227 186.399 273.806  0.00  0.00     0.015 A 
HETATM   34  C           1     177.816 186.492 275.067  0.00  0.00     0.037 A 
HETATM   35  C           1     177.286 185.776 276.139  0.00  0.00     0.068 A 
HETATM   36  C           1     176.165 184.965 275.951  0.00  0.00     0.037 A 
HETATM   37  C           1     175.577 184.872 274.690  0.00  0.00     0.015 A 
BRANCH  35  38
HETATM   38  O           1     177.857 185.866 277.365  0.00  0.00    -0.356 OA
HETATM   39  C           1     178.984 185.035 277.452  0.00  0.00     0.210 C 
ENDBRANCH  35  38
ENDBRANCH   1  32
TORSDOF 11
ENDMDL
MODEL 3
REMARK VINA RESULT:      -8.5      4.535     11.200
REMARK  11 active torsions:
REMARK  status: ('A' for Active; 'I' for Inactive)
REMARK    1  A    between atoms: C_1  and  C_19 
REMARK    2  A    between atoms: C_5  and  S_29 
REMARK    3  A    between atoms: C_6  and  C_8 
REMARK    4  A    between atoms: C_8  and  N_9 
REMARK    5  A    between atoms: N_9  and  C_10 
REMARK    6  A    between atoms: C_10  and  C_11 
REMARK    7  A    between atoms: C_11  and  C_12 
REMARK    8  A    between atoms: N_15  and  C_18 
REMARK    9  A    between atoms: C_22  and  O_37 
REMARK   10  A    between atoms: S_29  and  C_36 
REMARK   11  A    between atoms: C_30  and  C_36 
ROOT
HETATM    1  C           1     174.649 186.091 276.457  0.00  0.00    -0.010 A 
HETATM    2  C           1     175.424 186.763 277.389  0.00  0.00     0.101 A 
HETATM    3  N           1     175.016 187.036 278.648  0.00  0.00    -0.359 N 
ATOM      4  HN          1     175.614 187.532 279.309  1.00  0.00     0.166 HD
HETATM    5  C           1     173.777 186.618 278.987  0.00  0.00     0.077 A 
HETATM    6  C           1     172.930 185.940 278.125  0.00  0.00     0.004 A 
HETATM    7  C           1     173.378 185.674 276.836  0.00  0.00     0.025 A 
ENDROOT
BRANCH   6   8
HETATM    8  C           1     171.567 185.507 278.571  0.00  0.00     0.311 C 
BRANCH   8   9
HETATM    9  N           1     170.618 185.749 277.518  0.00  0.00     0.087 N 
HETATM   10  H           1     171.080 185.651 276.614  0.00  0.00     0.316 HD
BRANCH   9  11
HETATM   11  C           1     170.137 187.096 277.667  0.00  0.00     0.270 C 
BRANCH  11  12
HETATM   12  C           1     169.762 187.655 276.300  0.00  0.00     0.034 C 
BRANCH  12  13
HETATM   13  C           1     170.930 187.473 275.339  0.00  0.00    -0.010 C 
HETATM   14  C           1     170.389 187.213 273.936  0.00  0.00     0.035 C 
HETATM   15  C           1     171.512 187.217 272.900  0.00  0.00     0.273 C 
HETATM   16  N           1     172.279 188.461 272.946  0.00  0.00     0.093 N 
HETATM   17  C           1     172.866 188.679 274.269  0.00  0.00     0.273 C 
HETATM   18  C           1     171.794 188.730 275.355  0.00  0.00     0.035 C 
BRANCH  16  19
HETATM   19  C           1     173.358 188.297 272.011  0.00  0.00     0.223 C 
HETATM   20  C           1     173.184 189.217 270.812  0.00  0.00     0.036 C 
HETATM   21  C           1     174.600 189.519 270.319  0.00  0.00     0.002 C 
HETATM   22  C           1     175.549 188.994 271.394  0.00  0.00     0.002 C 
HETATM   23  C           1     174.676 188.752 272.615  0.00  0.00     0.036 C 
ENDBRANCH  16  19
ENDBRANCH  12  13
ENDBRANCH  11  12
ENDBRANCH   9  11
ENDBRANCH   8   9
ENDBRANCH   6   8
BRANCH   5  24
HETATM   24  S           1     173.189 186.964 280.669  0.00  0.00    -0.107 SA
BRANCH  24  25
HETATM   25  C           1     174.275 185.730 281.438  0.00  0.00     0.119 C 
BRANCH  25  26
HETATM   26  C           1     173.950 185.619 282.896  0.00  0.00    -0.049 A 
HETATM   27  C           1     172.772 186.177 283.393  0.00  0.00     0.008 A 
HETATM   28  C           1     172.471 186.074 284.751  0.00  0.00     0.001 A 
HETATM   29  C           1     173.346 185.411 285.612  0.00  0.00     0.000 A 
HETATM   30  C           1     174.524 184.853 285.115  0.00  0.00     0.001 A 
HETATM   31  C           1     174.826 184.957 283.756  0.00  0.00     0.008 A 
ENDBRANCH  25  26
ENDBRANCH  24  25
ENDBRANCH   5  24
BRANCH   1  32
HETATM   32  C           1     175.111 185.852 275.226  0.00  0.00    -0.024 A 
HETATM   33  C           1     176.403 186.248 274.877  0.00  0.00     0.015 A 
HETATM   34  C           1     176.886 185.999 273.592  0.00  0.00     0.037 A 
HETATM   35  C           1     176.077 185.356 272.656  0.00  0.00     0.068 A 
HETATM   36  C           1     174.784 184.960 273.004  0.00  0.00     0.037 A 
HETATM   37  C           1     174.303 185.209 274.289  0.00  0.00     0.015 A 
BRANCH  35  38
HETATM   38  O           1     176.545 185.114 271.407  0.00  0.00    -0.356 OA
HETATM   39  C           1     175.724 184.198 270.735  0.00  0.00     0.210 C 
ENDBRANCH  35  38
ENDBRANCH   1  32
TORSDOF 11
ENDMDL
MODEL 4
REMARK VINA RESULT:      -8.5      9.265     12.813
REMARK  11 active torsions:
REMARK  status: ('A' for Active; 'I' for Inactive)
REMARK    1  A    between atoms: C_1  and  C_19 
REMARK    2  A    between atoms: C_5  and  S_29 
REMARK    3  A    between atoms: C_6  and  C_8 
REMARK    4  A    between atoms: C_8  and  N_9 
REMARK    5  A    between atoms: N_9  and  C_10 
REMARK    6  A    between atoms: C_10  and  C_11 
REMARK    7  A    between atoms: C_11  and  C_12 
REMARK    8  A    between atoms: N_15  and  C_18 
REMARK    9  A    between atoms: C_22  and  O_37 
REMARK   10  A    between atoms: S_29  and  C_36 
REMARK   11  A    between atoms: C_30  and  C_36 
ROOT
HETATM    1  C           1     175.249 185.061 271.731  0.00  0.00    -0.010 A 
HETATM    2  C           1     176.127 184.971 270.662  0.00  0.00     0.101 A 
HETATM    3  N           1     175.739 184.730 269.390  0.00  0.00    -0.359 N 
ATOM      4  HN          1     176.413 184.671 268.627  1.00  0.00     0.166 HD
HETATM    5  C           1     174.414 184.572 269.180  0.00  0.00     0.077 A 
HETATM    6  C           1     173.461 184.644 270.184  0.00  0.00     0.004 A 
HETATM    7  C           1     173.890 184.894 271.483  0.00  0.00     0.025 A 
ENDROOT
BRANCH   6   8
HETATM    8  C           1     172.007 184.459 269.877  0.00  0.00     0.311 C 
BRANCH   8   9
HETATM    9  N           1     171.250 184.498 271.099  0.00  0.00     0.087 N 
HETATM   10  H           1     170.708 183.638 271.192  0.00  0.00     0.316 HD
BRANCH   9  11
HETATM   11  C           1     170.355 185.620 271.022  0.00  0.00     0.270 C 
BRANCH  11  12
HETATM   12  C           1     170.212 186.252 272.401  0.00  0.00     0.034 C 
BRANCH  12  13
HETATM   13  C           1     171.067 187.510 272.474  0.00  0.00    -0.010 C 
HETATM   14  C           1     172.365 187.193 273.212  0.00  0.00     0.035 C 
HETATM   15  C           1     173.342 188.365 273.144  0.00  0.00     0.273 C 
HETATM   16  N           1     173.605 188.764 271.761  0.00  0.00     0.093 N 
HETATM   17  C           1     172.373 189.144 271.069  0.00  0.00     0.273 C 
HETATM   18  C           1     171.361 188.000 271.060  0.00  0.00     0.035 C 
BRANCH  16  19
HETATM   19  C           1     174.443 189.930 271.837  0.00  0.00     0.223 C 
HETATM   20  C           1     175.625 189.814 270.887  0.00  0.00     0.036 C 
HETATM   21  C           1     175.976 191.250 270.494  0.00  0.00     0.002 C 
HETATM   22  C           1     174.835 192.126 271.006  0.00  0.00     0.002 C 
HETATM   23  C           1     173.707 191.160 271.334  0.00  0.00     0.036 C 
ENDBRANCH  16  19
ENDBRANCH  12  13
ENDBRANCH  11  12
ENDBRANCH   9  11
ENDBRANCH   8   9
ENDBRANCH   6   8
BRANCH   5  24
HETATM   24  S           1     173.849 184.246 267.486  0.00  0.00    -0.107 SA
BRANCH  24  25
HETATM   25  C           1     174.764 185.643 266.778  0.00  0.00     0.119 C 
BRANCH  25  26
HETATM   26  C           1     173.970 186.901 266.953  0.00  0.00    -0.049 A 
HETATM   27  C           1     174.532 187.994 267.613  0.00  0.00     0.008 A 
HETATM   28  C           1     173.792 189.165 267.777  0.00  0.00     0.001 A 
HETATM   29  C           1     172.490 189.243 267.280  0.00  0.00     0.000 A 
HETATM   30  C           1     171.929 188.150 266.620  0.00  0.00     0.001 A 
HETATM   31  C           1     172.670 186.979 266.456  0.00  0.00     0.008 A 
ENDBRANCH  25  26
ENDBRANCH  24  25
ENDBRANCH   5  24
BRANCH   1  32
HETATM   32  C           1     175.697 185.302 272.967  0.00  0.00    -0.024 A 
HETATM   33  C           1     176.866 186.040 273.154  0.00  0.00     0.015 A 
HETATM   34  C           1     177.333 186.291 274.443  0.00  0.00     0.037 A 
HETATM   35  C           1     176.634 185.803 275.546  0.00  0.00     0.068 A 
HETATM   36  C           1     175.464 185.065 275.360  0.00  0.00     0.037 A 
HETATM   37  C           1     174.997 184.815 274.070  0.00  0.00     0.015 A 
BRANCH  35  38
HETATM   38  O           1     177.088 186.047 276.800  0.00  0.00    -0.356 OA
HETATM   39  C           1     178.365 185.498 276.982  0.00  0.00     0.210 C 
ENDBRANCH  35  38
ENDBRANCH   1  32
TORSDOF 11
ENDMDL
MODEL 5
REMARK VINA RESULT:      -8.4      2.772      6.893
REMARK  11 active torsions:
REMARK  status: ('A' for Active; 'I' for Inactive)
REMARK    1  A    between atoms: C_1  and  C_19 
REMARK    2  A    between atoms: C_5  and  S_29 
REMARK    3  A    between atoms: C_6  and  C_8 
REMARK    4  A    between atoms: C_8  and  N_9 
REMARK    5  A    between atoms: N_9  and  C_10 
REMARK    6  A    between atoms: C_10  and  C_11 
REMARK    7  A    between atoms: C_11  and  C_12 
REMARK    8  A    between atoms: N_15  and  C_18 
REMARK    9  A    between atoms: C_22  and  O_37 
REMARK   10  A    between atoms: S_29  and  C_36 
REMARK   11  A    between atoms: C_30  and  C_36 
ROOT
HETATM    1  C           1     173.801 186.928 279.315  0.00  0.00    -0.010 A 
HETATM    2  C           1     172.550 187.515 279.433  0.00  0.00     0.101 A 
HETATM    3  N           1     172.038 187.962 280.600  0.00  0.00    -0.359 N 
ATOM      4  HN          1     171.113 188.390 280.650  1.00  0.00     0.166 HD
HETATM    5  C           1     172.812 187.815 281.698  0.00  0.00     0.077 A 
HETATM    6  C           1     174.073 187.242 281.679  0.00  0.00     0.004 A 
HETATM    7  C           1     174.574 186.791 280.463  0.00  0.00     0.025 A 
ENDROOT
BRANCH   6   8
HETATM    8  C           1     174.876 187.112 282.938  0.00  0.00     0.311 C 
BRANCH   8   9
HETATM    9  N           1     175.138 185.722 283.198  0.00  0.00     0.087 N 
HETATM   10  H           1     175.011 185.185 282.340  0.00  0.00     0.316 HD
BRANCH   9  11
HETATM   11  C           1     174.191 185.278 284.185  0.00  0.00     0.270 C 
BRANCH  11  12
HETATM   12  C           1     174.920 184.494 285.270  0.00  0.00     0.034 C 
BRANCH  12  13
HETATM   13  C           1     174.143 184.594 286.577  0.00  0.00    -0.010 C 
HETATM   14  C           1     174.807 185.632 287.477  0.00  0.00     0.035 C 
HETATM   15  C           1     173.961 185.913 288.717  0.00  0.00     0.273 C 
HETATM   16  N           1     172.602 186.319 288.357  0.00  0.00     0.093 N 
HETATM   17  C           1     171.930 185.293 287.558  0.00  0.00     0.273 C 
HETATM   18  C           1     172.702 184.990 286.275  0.00  0.00     0.035 C 
BRANCH  16  19
HETATM   19  C           1     171.885 186.447 289.597  0.00  0.00     0.223 C 
HETATM   20  C           1     172.566 185.658 290.704  0.00  0.00     0.036 C 
HETATM   21  C           1     172.234 186.399 291.999  0.00  0.00     0.002 C 
HETATM   22  C           1     171.607 187.728 291.584  0.00  0.00     0.002 C 
HETATM   23  C           1     171.931 187.878 290.106  0.00  0.00     0.036 C 
ENDBRANCH  16  19
ENDBRANCH  12  13
ENDBRANCH  11  12
ENDBRANCH   9  11
ENDBRANCH   8   9
ENDBRANCH   6   8
BRANCH   5  24
HETATM   24  S           1     172.162 188.403 283.288  0.00  0.00    -0.107 SA
BRANCH  24  25
HETATM   25  C           1     172.613 190.133 282.976  0.00  0.00     0.119 C 
BRANCH  25  26
HETATM   26  C           1     171.370 190.951 282.810  0.00  0.00    -0.049 A 
HETATM   27  C           1     171.444 192.344 282.835  0.00  0.00     0.008 A 
HETATM   28  C           1     170.286 193.106 282.681  0.00  0.00     0.001 A 
HETATM   29  C           1     169.054 192.476 282.501  0.00  0.00     0.000 A 
HETATM   30  C           1     168.981 191.083 282.476  0.00  0.00     0.001 A 
HETATM   31  C           1     170.140 190.321 282.631  0.00  0.00     0.008 A 
ENDBRANCH  25  26
ENDBRANCH  24  25
ENDBRANCH   5  24
BRANCH   1  32
HETATM   32  C           1     174.250 186.506 278.130  0.00  0.00    -0.024 A 
HETATM   33  C           1     173.398 185.821 277.264  0.00  0.00     0.015 A 
HETATM   34  C           1     173.867 185.380 276.027  0.00  0.00     0.037 A 
HETATM   35  C           1     175.189 185.622 275.656  0.00  0.00     0.068 A 
HETATM   36  C           1     176.043 186.307 276.522  0.00  0.00     0.037 A 
HETATM   37  C           1     175.573 186.748 277.758  0.00  0.00     0.015 A 
BRANCH  35  38
HETATM   38  O           1     175.646 185.193 274.454  0.00  0.00    -0.356 OA
HETATM   39  C           1     174.944 185.806 273.406  0.00  0.00     0.210 C 
ENDBRANCH  35  38
ENDBRANCH   1  32
TORSDOF 11
ENDMDL
MODEL 6
REMARK VINA RESULT:      -8.3      2.362      9.114
REMARK  11 active torsions:
REMARK  status: ('A' for Active; 'I' for Inactive)
REMARK    1  A    between atoms: C_1  and  C_19 
REMARK    2  A    between atoms: C_5  and  S_29 
REMARK    3  A    between atoms: C_6  and  C_8 
REMARK    4  A    between atoms: C_8  and  N_9 
REMARK    5  A    between atoms: N_9  and  C_10 
REMARK    6  A    between atoms: C_10  and  C_11 
REMARK    7  A    between atoms: C_11  and  C_12 
REMARK    8  A    between atoms: N_15  and  C_18 
REMARK    9  A    between atoms: C_22  and  O_37 
REMARK   10  A    between atoms: S_29  and  C_36 
REMARK   11  A    between atoms: C_30  and  C_36 
ROOT
HETATM    1  C           1     172.632 189.529 282.487  0.00  0.00    -0.010 A 
HETATM    2  C           1     173.467 189.225 283.552  0.00  0.00     0.101 A 
HETATM    3  N           1     174.369 188.220 283.535  0.00  0.00    -0.359 N 
ATOM      4  HN          1     174.969 188.026 284.337  1.00  0.00     0.166 HD
HETATM    5  C           1     174.438 187.486 282.404  0.00  0.00     0.077 A 
HETATM    6  C           1     173.646 187.712 281.289  0.00  0.00     0.004 A 
HETATM    7  C           1     172.726 188.754 281.336  0.00  0.00     0.025 A 
ENDROOT
BRANCH   6   8
HETATM    8  C           1     173.777 186.857 280.067  0.00  0.00     0.311 C 
BRANCH   8   9
HETATM    9  N           1     172.504 186.265 279.756  0.00  0.00     0.087 N 
HETATM   10  H           1     172.262 185.583 280.475  0.00  0.00     0.316 HD
BRANCH   9  11
HETATM   11  C           1     172.631 185.599 278.488  0.00  0.00     0.270 C 
BRANCH  11  12
HETATM   12  C           1     173.813 186.182 277.724  0.00  0.00     0.034 C 
BRANCH  12  13
HETATM   13  C           1     173.854 185.590 276.321  0.00  0.00    -0.010 C 
HETATM   14  C           1     173.181 186.556 275.350  0.00  0.00     0.035 C 
HETATM   15  C           1     173.366 186.103 273.902  0.00  0.00     0.273 C 
HETATM   16  N           1     174.780 185.924 273.573  0.00  0.00     0.093 N 
HETATM   17  C           1     175.414 184.941 274.452  0.00  0.00     0.273 C 
HETATM   18  C           1     175.306 185.351 275.920  0.00  0.00     0.035 C 
BRANCH  16  19
HETATM   19  C           1     174.812 185.400 272.235  0.00  0.00     0.223 C 
HETATM   20  C           1     176.243 185.168 271.775  0.00  0.00     0.036 C 
HETATM   21  C           1     176.171 184.011 270.779  0.00  0.00     0.002 C 
HETATM   22  C           1     174.761 183.435 270.892  0.00  0.00     0.002 C 
HETATM   23  C           1     174.197 184.012 272.180  0.00  0.00     0.036 C 
ENDBRANCH  16  19
ENDBRANCH  12  13
ENDBRANCH  11  12
ENDBRANCH   9  11
ENDBRANCH   8   9
ENDBRANCH   6   8
BRANCH   5  24
HETATM   24  S           1     175.637 186.125 282.339  0.00  0.00    -0.107 SA
BRANCH  24  25
HETATM   25  C           1     174.387 184.842 282.627  0.00  0.00     0.119 C 
BRANCH  25  26
HETATM   26  C           1     173.968 184.867 284.065  0.00  0.00    -0.049 A 
HETATM   27  C           1     174.901 184.603 285.068  0.00  0.00     0.008 A 
HETATM   28  C           1     174.510 184.626 286.407  0.00  0.00     0.001 A 
HETATM   29  C           1     173.187 184.914 286.743  0.00  0.00     0.000 A 
HETATM   30  C           1     172.254 185.178 285.740  0.00  0.00     0.001 A 
HETATM   31  C           1     172.646 185.154 284.400  0.00  0.00     0.008 A 
ENDBRANCH  25  26
ENDBRANCH  24  25
ENDBRANCH   5  24
BRANCH   1  32
HETATM   32  C           1     171.759 190.537 282.567  0.00  0.00    -0.024 A 
HETATM   33  C           1     170.594 190.395 283.321  0.00  0.00     0.015 A 
HETATM   34  C           1     169.683 191.448 283.403  0.00  0.00     0.037 A 
HETATM   35  C           1     169.936 192.643 282.732  0.00  0.00     0.068 A 
HETATM   36  C           1     171.101 192.786 281.977  0.00  0.00     0.037 A 
HETATM   37  C           1     172.012 191.734 281.895  0.00  0.00     0.015 A 
BRANCH  35  38
HETATM   38  O           1     169.051 193.666 282.811  0.00  0.00    -0.356 OA
HETATM   39  C           1     167.854 193.245 283.408  0.00  0.00     0.210 C 
ENDBRANCH  35  38
ENDBRANCH   1  32
TORSDOF 11
ENDMDL
MODEL 7
REMARK VINA RESULT:      -8.2      3.774      9.374
REMARK  11 active torsions:
REMARK  status: ('A' for Active; 'I' for Inactive)
REMARK    1  A    between atoms: C_1  and  C_19 
REMARK    2  A    between atoms: C_5  and  S_29 
REMARK    3  A    between atoms: C_6  and  C_8 
REMARK    4  A    between atoms: C_8  and  N_9 
REMARK    5  A    between atoms: N_9  and  C_10 
REMARK    6  A    between atoms: C_10  and  C_11 
REMARK    7  A    between atoms: C_11  and  C_12 
REMARK    8  A    between atoms: N_15  and  C_18 
REMARK    9  A    between atoms: C_22  and  O_37 
REMARK   10  A    between atoms: S_29  and  C_36 
REMARK   11  A    between atoms: C_30  and  C_36 
ROOT
HETATM    1  C           1     173.980 186.113 281.448  0.00  0.00    -0.010 A 
HETATM    2  C           1     175.053 186.852 280.974  0.00  0.00     0.101 A 
HETATM    3  N           1     175.217 187.192 279.677  0.00  0.00    -0.359 N 
ATOM      4  HN          1     176.020 187.738 279.363  1.00  0.00     0.166 HD
HETATM    5  C           1     174.264 186.774 278.816  0.00  0.00     0.077 A 
HETATM    6  C           1     173.156 186.032 279.195  0.00  0.00     0.004 A 
HETATM    7  C           1     173.015 185.697 280.537  0.00  0.00     0.025 A 
ENDROOT
BRANCH   6   8
HETATM    8  C           1     172.137 185.602 278.184  0.00  0.00     0.311 C 
BRANCH   8   9
HETATM    9  N           1     170.878 186.233 278.474  0.00  0.00     0.087 N 
HETATM   10  H           1     170.118 185.582 278.275  0.00  0.00     0.316 HD
BRANCH   9  11
HETATM   11  C           1     170.759 187.383 277.619  0.00  0.00     0.270 C 
BRANCH  11  12
HETATM   12  C           1     170.286 186.943 276.239  0.00  0.00     0.034 C 
BRANCH  12  13
HETATM   13  C           1     171.359 187.267 275.208  0.00  0.00    -0.010 C 
HETATM   14  C           1     170.858 186.871 273.822  0.00  0.00     0.035 C 
HETATM   15  C           1     171.812 187.352 272.729  0.00  0.00     0.273 C 
HETATM   16  N           1     172.041 188.794 272.815  0.00  0.00     0.093 N 
HETATM   17  C           1     172.595 189.172 274.115  0.00  0.00     0.273 C 
HETATM   18  C           1     171.670 188.759 275.259  0.00  0.00     0.035 C 
BRANCH  16  19
HETATM   19  C           1     173.027 189.099 271.814  0.00  0.00     0.223 C 
HETATM   20  C           1     174.383 189.367 272.449  0.00  0.00     0.036 C 
HETATM   21  C           1     175.415 188.948 271.402  0.00  0.00     0.002 C 
HETATM   22  C           1     174.644 188.207 270.312  0.00  0.00     0.002 C 
HETATM   23  C           1     173.288 187.895 270.924  0.00  0.00     0.036 C 
ENDBRANCH  16  19
ENDBRANCH  12  13
ENDBRANCH  11  12
ENDBRANCH   9  11
ENDBRANCH   8   9
ENDBRANCH   6   8
BRANCH   5  24
HETATM   24  S           1     174.444 187.209 277.063  0.00  0.00    -0.107 SA
BRANCH  24  25
HETATM   25  C           1     175.437 185.742 276.671  0.00  0.00     0.119 C 
BRANCH  25  26
HETATM   26  C           1     175.632 185.652 275.189  0.00  0.00    -0.049 A 
HETATM   27  C           1     176.806 186.135 274.610  0.00  0.00     0.008 A 
HETATM   28  C           1     176.987 186.053 273.229  0.00  0.00     0.001 A 
HETATM   29  C           1     175.996 185.486 272.428  0.00  0.00     0.000 A 
HETATM   30  C           1     174.822 185.002 273.007  0.00  0.00     0.001 A 
HETATM   31  C           1     174.641 185.086 274.388  0.00  0.00     0.008 A 
ENDBRANCH  25  26
ENDBRANCH  24  25
ENDBRANCH   5  24
BRANCH   1  32
HETATM   32  C           1     173.877 185.810 282.745  0.00  0.00    -0.024 A 
HETATM   33  C           1     172.673 186.021 283.418  0.00  0.00     0.015 A 
HETATM   34  C           1     172.565 185.704 284.771  0.00  0.00     0.037 A 
HETATM   35  C           1     173.661 185.178 285.454  0.00  0.00     0.068 A 
HETATM   36  C           1     174.866 184.966 284.782  0.00  0.00     0.037 A 
HETATM   37  C           1     174.973 185.282 283.428  0.00  0.00     0.015 A 
BRANCH  35  38
HETATM   38  O           1     173.557 184.870 286.770  0.00  0.00    -0.356 OA
HETATM   39  C           1     174.480 185.604 287.528  0.00  0.00     0.210 C 
ENDBRANCH  35  38
ENDBRANCH   1  32
TORSDOF 11
ENDMDL
MODEL 8
REMARK VINA RESULT:      -8.2     10.021     13.484
REMARK  11 active torsions:
REMARK  status: ('A' for Active; 'I' for Inactive)
REMARK    1  A    between atoms: C_1  and  C_19 
REMARK    2  A    between atoms: C_5  and  S_29 
REMARK    3  A    between atoms: C_6  and  C_8 
REMARK    4  A    between atoms: C_8  and  N_9 
REMARK    5  A    between atoms: N_9  and  C_10 
REMARK    6  A    between atoms: C_10  and  C_11 
REMARK    7  A    between atoms: C_11  and  C_12 
REMARK    8  A    between atoms: N_15  and  C_18 
REMARK    9  A    between atoms: C_22  and  O_37 
REMARK   10  A    between atoms: S_29  and  C_36 
REMARK   11  A    between atoms: C_30  and  C_36 
ROOT
HETATM    1  C           1     172.748 189.518 267.672  0.00  0.00    -0.010 A 
HETATM    2  C           1     174.089 189.309 267.955  0.00  0.00     0.101 A 
HETATM    3  N           1     174.755 188.177 267.642  0.00  0.00    -0.359 N 
ATOM      4  HN          1     175.743 188.057 267.865  1.00  0.00     0.166 HD
HETATM    5  C           1     174.047 187.210 267.019  0.00  0.00     0.077 A 
HETATM    6  C           1     172.704 187.326 266.695  0.00  0.00     0.004 A 
HETATM    7  C           1     172.046 188.504 267.029  0.00  0.00     0.025 A 
ENDROOT
BRANCH   6   8
HETATM    8  C           1     171.982 186.211 266.002  0.00  0.00     0.311 C 
BRANCH   8   9
HETATM    9  N           1     170.894 185.760 266.825  0.00  0.00     0.087 N 
HETATM   10  H           1     170.596 186.517 267.441  0.00  0.00     0.316 HD
BRANCH   9  11
HETATM   11  C           1     171.373 184.660 267.617  0.00  0.00     0.270 C 
BRANCH  11  12
HETATM   12  C           1     171.186 184.978 269.095  0.00  0.00     0.034 C 
BRANCH  12  13
HETATM   13  C           1     172.520 184.840 269.818  0.00  0.00    -0.010 C 
HETATM   14  C           1     172.889 186.180 270.448  0.00  0.00     0.035 C 
HETATM   15  C           1     174.118 186.049 271.347  0.00  0.00     0.273 C 
HETATM   16  N           1     173.926 185.020 272.370  0.00  0.00     0.093 N 
HETATM   17  C           1     173.647 183.715 271.770  0.00  0.00     0.273 C 
HETATM   18  C           1     172.401 183.759 270.887  0.00  0.00     0.035 C 
BRANCH  16  19
HETATM   19  C           1     175.177 184.921 273.071  0.00  0.00     0.223 C 
HETATM   20  C           1     176.130 186.026 272.645  0.00  0.00     0.036 C 
HETATM   21  C           1     177.019 186.292 273.860  0.00  0.00     0.002 C 
HETATM   22  C           1     176.388 185.535 275.027  0.00  0.00     0.002 C 
HETATM   23  C           1     174.987 185.174 274.558  0.00  0.00     0.036 C 
ENDBRANCH  16  19
ENDBRANCH  12  13
ENDBRANCH  11  12
ENDBRANCH   9  11
ENDBRANCH   8   9
ENDBRANCH   6   8
BRANCH   5  24
HETATM   24  S           1     174.903 185.671 266.580  0.00  0.00    -0.107 SA
BRANCH  24  25
HETATM   25  C           1     175.961 185.691 268.054  0.00  0.00     0.119 C 
BRANCH  25  26
HETATM   26  C           1     176.017 184.317 268.647  0.00  0.00    -0.049 A 
HETATM   27  C           1     175.306 183.272 268.057  0.00  0.00     0.008 A 
HETATM   28  C           1     175.357 181.993 268.610  0.00  0.00     0.001 A 
HETATM   29  C           1     176.122 181.758 269.753  0.00  0.00     0.000 A 
HETATM   30  C           1     176.833 182.802 270.344  0.00  0.00     0.001 A 
HETATM   31  C           1     176.781 184.082 269.790  0.00  0.00     0.008 A 
ENDBRANCH  25  26
ENDBRANCH  24  25
ENDBRANCH   5  24
BRANCH   1  32
HETATM   32  C           1     172.147 190.663 268.009  0.00  0.00    -0.024 A 
HETATM   33  C           1     171.399 191.364 267.062  0.00  0.00     0.015 A 
HETATM   34  C           1     170.772 192.558 267.413  0.00  0.00     0.037 A 
HETATM   35  C           1     170.893 193.055 268.711  0.00  0.00     0.068 A 
HETATM   36  C           1     171.641 192.355 269.658  0.00  0.00     0.037 A 
HETATM   37  C           1     172.267 191.160 269.307  0.00  0.00     0.015 A 
BRANCH  35  38
HETATM   38  O           1     170.284 194.216 269.052  0.00  0.00    -0.356 OA
HETATM   39  C           1     170.084 195.025 267.925  0.00  0.00     0.210 C 
ENDBRANCH  35  38
ENDBRANCH   1  32
TORSDOF 11
ENDMDL
MODEL 9
REMARK VINA RESULT:      -8.2      6.637     13.184
REMARK  11 active torsions:
REMARK  status: ('A' for Active; 'I' for Inactive)
REMARK    1  A    between atoms: C_1  and  C_19 
REMARK    2  A    between atoms: C_5  and  S_29 
REMARK    3  A    between atoms: C_6  and  C_8 
REMARK    4  A    between atoms: C_8  and  N_9 
REMARK    5  A    between atoms: N_9  and  C_10 
REMARK    6  A    between atoms: C_10  and  C_11 
REMARK    7  A    between atoms: C_11  and  C_12 
REMARK    8  A    between atoms: N_15  and  C_18 
REMARK    9  A    between atoms: C_22  and  O_37 
REMARK   10  A    between atoms: S_29  and  C_36 
REMARK   11  A    between atoms: C_30  and  C_36 
ROOT
HETATM    1  C           1     174.502 186.589 276.402  0.00  0.00    -0.010 A 
HETATM    2  C           1     174.968 187.812 275.944  0.00  0.00     0.101 A 
HETATM    3  N           1     175.473 188.007 274.706  0.00  0.00    -0.359 N 
ATOM      4  HN          1     175.807 188.922 274.402  1.00  0.00     0.166 HD
HETATM    5  C           1     175.515 186.930 273.891  0.00  0.00     0.077 A 
HETATM    6  C           1     175.073 185.669 274.259  0.00  0.00     0.004 A 
HETATM    7  C           1     174.557 185.499 275.539  0.00  0.00     0.025 A 
ENDROOT
BRANCH   6   8
HETATM    8  C           1     175.149 184.519 273.302  0.00  0.00     0.311 C 
BRANCH   8   9
HETATM    9  N           1     173.888 184.373 272.627  0.00  0.00     0.087 N 
HETATM   10  H           1     173.373 183.591 273.033  0.00  0.00     0.316 HD
BRANCH   9  11
HETATM   11  C           1     174.164 184.097 271.243  0.00  0.00     0.270 C 
BRANCH  11  12
HETATM   12  C           1     175.107 182.904 271.141  0.00  0.00     0.034 C 
BRANCH  12  13
HETATM   13  C           1     175.862 182.964 269.820  0.00  0.00    -0.010 C 
HETATM   14  C           1     174.892 182.684 268.675  0.00  0.00     0.035 C 
HETATM   15  C           1     175.553 182.923 267.319  0.00  0.00     0.273 C 
HETATM   16  N           1     176.105 184.274 267.223  0.00  0.00     0.093 N 
HETATM   17  C           1     177.093 184.525 268.272  0.00  0.00     0.273 C 
HETATM   18  C           1     176.490 184.345 269.664  0.00  0.00     0.035 C 
BRANCH  16  19
HETATM   19  C           1     176.784 184.336 265.957  0.00  0.00     0.223 C 
HETATM   20  C           1     177.338 182.973 265.569  0.00  0.00     0.036 C 
HETATM   21  C           1     177.346 182.955 264.041  0.00  0.00     0.002 C 
HETATM   22  C           1     176.555 184.182 263.593  0.00  0.00     0.002 C 
HETATM   23  C           1     175.813 184.653 264.833  0.00  0.00     0.036 C 
ENDBRANCH  16  19
ENDBRANCH  12  13
ENDBRANCH  11  12
ENDBRANCH   9  11
ENDBRANCH   8   9
ENDBRANCH   6   8
BRANCH   5  24
HETATM   24  S           1     176.186 187.148 272.219  0.00  0.00    -0.107 SA
BRANCH  24  25
HETATM   25  C           1     175.174 188.613 271.867  0.00  0.00     0.119 C 
BRANCH  25  26
HETATM   26  C           1     174.961 188.729 270.389  0.00  0.00    -0.049 A 
HETATM   27  C           1     174.815 187.579 269.613  0.00  0.00     0.008 A 
HETATM   28  C           1     174.617 187.687 268.237  0.00  0.00     0.001 A 
HETATM   29  C           1     174.564 188.946 267.636  0.00  0.00     0.000 A 
HETATM   30  C           1     174.710 190.096 268.413  0.00  0.00     0.001 A 
HETATM   31  C           1     174.909 189.987 269.790  0.00  0.00     0.008 A 
ENDBRANCH  25  26
ENDBRANCH  24  25
ENDBRANCH   5  24
BRANCH   1  32
HETATM   32  C           1     174.013 186.462 277.639  0.00  0.00    -0.024 A 
HETATM   33  C           1     172.817 185.776 277.850  0.00  0.00     0.015 A 
HETATM   34  C           1     172.307 185.644 279.141  0.00  0.00     0.037 A 
HETATM   35  C           1     172.991 186.198 280.221  0.00  0.00     0.068 A 
HETATM   36  C           1     174.188 186.885 280.011  0.00  0.00     0.037 A 
HETATM   37  C           1     174.698 187.016 278.720  0.00  0.00     0.015 A 
BRANCH  35  38
HETATM   38  O           1     172.496 186.070 281.476  0.00  0.00    -0.356 OA
HETATM   39  C           1     173.243 186.829 282.387  0.00  0.00     0.210 C 
ENDBRANCH  35  38
ENDBRANCH   1  32
TORSDOF 11
ENDMDL
