MODEL 1
REMARK VINA RESULT:      -7.5      0.000      0.000
REMARK  11 active torsions:
REMARK  status: ('A' for Active; 'I' for Inactive)
REMARK    1  A    between atoms: C_1  and  C_19 
REMARK    2  A    between atoms: C_5  and  S_30 
REMARK    3  A    between atoms: C_6  and  C_8 
REMARK    4  A    between atoms: C_8  and  N_9 
REMARK    5  A    between atoms: N_9  and  C_10 
REMARK    6  A    between atoms: C_10  and  C_11 
REMARK    7  A    between atoms: C_11  and  C_12 
REMARK    8  A    between atoms: N_15  and  C_18 
REMARK    9  A    between atoms: C_22  and  O_38 
REMARK   10  A    between atoms: S_30  and  C_37 
REMARK   11  A    between atoms: C_31  and  C_37 
ROOT
HETATM    1  C           1     175.040 185.381 271.913  0.00  0.00    -0.010 A 
HETATM    2  C           1     175.649 185.920 270.791  0.00  0.00     0.101 A 
HETATM    3  N           1     175.144 185.820 269.542  0.00  0.00    -0.359 N 
ATOM      4  HN          1     175.619 186.230 268.737  1.00  0.00     0.166 HD
HETATM    5  C           1     173.980 185.149 269.412  0.00  0.00     0.077 A 
HETATM    6  C           1     173.297 184.576 270.473  0.00  0.00     0.004 A 
HETATM    7  C           1     173.841 184.696 271.747  0.00  0.00     0.025 A 
ENDROOT
BRANCH   6   8
HETATM    8  C           1     172.008 183.846 270.253  0.00  0.00     0.311 C 
BRANCH   8   9
HETATM    9  N           1     171.092 184.158 271.317  0.00  0.00     0.087 N 
HETATM   10  H           1     170.436 183.387 271.437  0.00  0.00     0.316 HD
BRANCH   9  11
HETATM   11  C           1     170.375 185.346 270.941  0.00  0.00     0.270 C 
BRANCH  11  12
HETATM   12  C           1     170.037 186.152 272.189  0.00  0.00     0.034 C 
BRANCH  12  13
HETATM   13  C           1     170.876 187.423 272.216  0.00  0.00    -0.010 C 
HETATM   14  C           1     171.985 187.270 273.252  0.00  0.00     0.035 C 
HETATM   15  C           1     172.972 188.433 273.184  0.00  0.00     0.273 C 
HETATM   16  N           1     173.526 188.588 271.839  0.00  0.00     0.093 N 
HETATM   17  C           1     172.472 188.812 270.848  0.00  0.00     0.273 C 
HETATM   18  C           1     171.467 187.662 270.831  0.00  0.00     0.035 C 
BRANCH  16  19
HETATM   19  C           1     174.346 189.769 271.880  0.00  0.00     0.223 C 
HETATM   20  C           1     175.543 189.632 270.953  0.00  0.00     0.036 C 
HETATM   21  C           1     175.882 191.054 270.509  0.00  0.00     0.002 C 
HETATM   22  C           1     174.721 191.935 270.967  0.00  0.00     0.002 C 
HETATM   23  C           1     173.602 190.967 271.317  0.00  0.00     0.036 C 
ENDBRANCH  16  19
ENDBRANCH  12  13
ENDBRANCH  11  12
ENDBRANCH   9  11
ENDBRANCH   8   9
ENDBRANCH   6   8
BRANCH   5  24
HETATM   24  S           1     173.266 184.990 267.751  0.00  0.00    -0.107 SA
BRANCH  24  25
HETATM   25  C           1     174.304 186.298 267.041  0.00  0.00     0.119 C 
BRANCH  25  26
HETATM   26  C           1     173.591 187.610 267.140  0.00  0.00    -0.049 A 
HETATM   27  C           1     172.256 187.711 266.750  0.00  0.00     0.008 A 
HETATM   28  C           1     171.592 188.933 266.842  0.00  0.00     0.001 A 
HETATM   29  C           1     172.265 190.057 267.323  0.00  0.00     0.000 A 
HETATM   30  C           1     173.599 189.957 267.712  0.00  0.00     0.001 A 
HETATM   31  C           1     174.263 188.734 267.620  0.00  0.00     0.008 A 
ENDBRANCH  25  26
ENDBRANCH  24  25
ENDBRANCH   5  24
BRANCH   1  32
HETATM   32  C           1     175.591 185.517 273.125  0.00  0.00    -0.021 A 
HETATM   33  C           1     176.828 186.147 273.261  0.00  0.00     0.057 A 
HETATM   34  C           1     177.403 186.288 274.525  0.00  0.00     0.150 A 
HETATM   35  F           1     178.574 186.884 274.654  0.00  0.00    -0.203 F 
HETATM   36  C           1     176.741 185.800 275.650  0.00  0.00     0.106 A 
HETATM   37  C           1     175.504 185.170 275.513  0.00  0.00     0.041 A 
HETATM   38  C           1     174.929 185.029 274.250  0.00  0.00     0.015 A 
BRANCH  36  39
HETATM   39  O           1     177.299 185.937 276.877  0.00  0.00    -0.353 OA
HETATM   40  C           1     178.401 185.082 277.021  0.00  0.00     0.210 C 
ENDBRANCH  36  39
ENDBRANCH   1  32
TORSDOF 11
ENDMDL
MODEL 2
REMARK VINA RESULT:      -7.5      9.459     12.947
REMARK  11 active torsions:
REMARK  status: ('A' for Active; 'I' for Inactive)
REMARK    1  A    between atoms: C_1  and  C_19 
REMARK    2  A    between atoms: C_5  and  S_30 
REMARK    3  A    between atoms: C_6  and  C_8 
REMARK    4  A    between atoms: C_8  and  N_9 
REMARK    5  A    between atoms: N_9  and  C_10 
REMARK    6  A    between atoms: C_10  and  C_11 
REMARK    7  A    between atoms: C_11  and  C_12 
REMARK    8  A    between atoms: N_15  and  C_18 
REMARK    9  A    between atoms: C_22  and  O_38 
REMARK   10  A    between atoms: S_30  and  C_37 
REMARK   11  A    between atoms: C_31  and  C_37 
ROOT
HETATM    1  C           1     171.609 189.276 281.049  0.00  0.00    -0.010 A 
HETATM    2  C           1     170.882 188.973 279.909  0.00  0.00     0.101 A 
HETATM    3  N           1     171.132 187.903 279.122  0.00  0.00    -0.359 N 
ATOM      4  HN          1     170.575 187.709 278.289  1.00  0.00     0.166 HD
HETATM    5  C           1     172.155 187.104 279.494  0.00  0.00     0.077 A 
HETATM    6  C           1     172.939 187.325 280.616  0.00  0.00     0.004 A 
HETATM    7  C           1     172.657 188.434 281.406  0.00  0.00     0.025 A 
ENDROOT
BRANCH   6   8
HETATM    8  C           1     174.058 186.395 280.966  0.00  0.00     0.311 C 
BRANCH   8   9
HETATM    9  N           1     175.065 187.111 281.700  0.00  0.00     0.087 N 
HETATM   10  H           1     175.675 187.604 281.048  0.00  0.00     0.316 HD
BRANCH   9  11
HETATM   11  C           1     175.834 186.148 282.442  0.00  0.00     0.270 C 
BRANCH  11  12
HETATM   12  C           1     174.895 185.138 283.088  0.00  0.00     0.034 C 
BRANCH  12  13
HETATM   13  C           1     174.386 185.692 284.412  0.00  0.00    -0.010 C 
HETATM   14  C           1     172.867 185.562 284.459  0.00  0.00     0.035 C 
HETATM   15  C           1     172.321 185.921 285.840  0.00  0.00     0.273 C 
HETATM   16  N           1     172.951 185.120 286.889  0.00  0.00     0.093 N 
HETATM   17  C           1     174.404 185.299 286.901  0.00  0.00     0.273 C 
HETATM   18  C           1     175.025 184.916 285.559  0.00  0.00     0.035 C 
BRANCH  16  19
HETATM   19  C           1     172.438 185.624 288.136  0.00  0.00     0.223 C 
HETATM   20  C           1     173.530 185.667 289.195  0.00  0.00     0.036 C 
HETATM   21  C           1     173.147 186.812 290.131  0.00  0.00     0.002 C 
HETATM   22  C           1     172.009 187.565 289.444  0.00  0.00     0.002 C 
HETATM   23  C           1     172.021 187.078 288.004  0.00  0.00     0.036 C 
ENDBRANCH  16  19
ENDBRANCH  12  13
ENDBRANCH  11  12
ENDBRANCH   9  11
ENDBRANCH   8   9
ENDBRANCH   6   8
BRANCH   5  24
HETATM   24  S           1     172.526 185.656 278.464  0.00  0.00    -0.107 SA
BRANCH  24  25
HETATM   25  C           1     173.067 186.645 277.043  0.00  0.00     0.119 C 
BRANCH  25  26
HETATM   26  C           1     174.445 186.223 276.636  0.00  0.00    -0.049 A 
HETATM   27  C           1     175.559 186.772 277.271  0.00  0.00     0.008 A 
HETATM   28  C           1     176.842 186.379 276.892  0.00  0.00     0.001 A 
HETATM   29  C           1     177.011 185.439 275.876  0.00  0.00     0.000 A 
HETATM   30  C           1     175.898 184.891 275.240  0.00  0.00     0.001 A 
HETATM   31  C           1     174.615 185.283 275.620  0.00  0.00     0.008 A 
ENDBRANCH  25  26
ENDBRANCH  24  25
ENDBRANCH   5  24
BRANCH   1  32
HETATM   32  C           1     171.311 190.351 281.787  0.00  0.00    -0.021 A 
HETATM   33  C           1     170.404 190.242 282.841  0.00  0.00     0.057 A 
HETATM   34  C           1     170.092 191.364 283.611  0.00  0.00     0.150 A 
HETATM   35  F           1     169.233 191.261 284.609  0.00  0.00    -0.203 F 
HETATM   36  C           1     170.688 192.592 283.328  0.00  0.00     0.106 A 
HETATM   37  C           1     171.595 192.700 282.274  0.00  0.00     0.041 A 
HETATM   38  C           1     171.907 191.579 281.504  0.00  0.00     0.015 A 
BRANCH  36  39
HETATM   39  O           1     170.386 193.680 284.075  0.00  0.00    -0.353 OA
HETATM   40  C           1     169.277 194.355 283.546  0.00  0.00     0.210 C 
ENDBRANCH  36  39
ENDBRANCH   1  32
TORSDOF 11
ENDMDL
MODEL 3
REMARK VINA RESULT:      -7.4      8.639     12.465
REMARK  11 active torsions:
REMARK  status: ('A' for Active; 'I' for Inactive)
REMARK    1  A    between atoms: C_1  and  C_19 
REMARK    2  A    between atoms: C_5  and  S_30 
REMARK    3  A    between atoms: C_6  and  C_8 
REMARK    4  A    between atoms: C_8  and  N_9 
REMARK    5  A    between atoms: N_9  and  C_10 
REMARK    6  A    between atoms: C_10  and  C_11 
REMARK    7  A    between atoms: C_11  and  C_12 
REMARK    8  A    between atoms: N_15  and  C_18 
REMARK    9  A    between atoms: C_22  and  O_38 
REMARK   10  A    between atoms: S_30  and  C_37 
REMARK   11  A    between atoms: C_31  and  C_37 
ROOT
HETATM    1  C           1     173.950 186.639 277.668  0.00  0.00    -0.010 A 
HETATM    2  C           1     172.584 186.827 277.808  0.00  0.00     0.101 A 
HETATM    3  N           1     171.999 187.264 278.945  0.00  0.00    -0.359 N 
ATOM      4  HN          1     170.989 187.392 279.012  1.00  0.00     0.166 HD
HETATM    5  C           1     172.819 187.523 279.986  0.00  0.00     0.077 A 
HETATM    6  C           1     174.195 187.366 279.942  0.00  0.00     0.004 A 
HETATM    7  C           1     174.768 186.914 278.758  0.00  0.00     0.025 A 
ENDROOT
BRANCH   6   8
HETATM    8  C           1     175.042 187.673 281.138  0.00  0.00     0.311 C 
BRANCH   8   9
HETATM    9  N           1     175.997 186.617 281.334  0.00  0.00     0.087 N 
HETATM   10  H           1     175.803 185.858 280.682  0.00  0.00     0.316 HD
BRANCH   9  11
HETATM   11  C           1     175.851 186.141 282.683  0.00  0.00     0.270 C 
BRANCH  11  12
HETATM   12  C           1     174.853 184.991 282.711  0.00  0.00     0.034 C 
BRANCH  12  13
HETATM   13  C           1     174.278 184.851 284.115  0.00  0.00    -0.010 C 
HETATM   14  C           1     175.265 185.433 285.121  0.00  0.00     0.035 C 
HETATM   15  C           1     174.659 185.496 286.521  0.00  0.00     0.273 C 
HETATM   16  N           1     173.400 186.243 286.526  0.00  0.00     0.093 N 
HETATM   17  C           1     172.419 185.646 285.619  0.00  0.00     0.273 C 
HETATM   18  C           1     172.945 185.588 284.186  0.00  0.00     0.035 C 
BRANCH  16  19
HETATM   19  C           1     172.881 186.138 287.863  0.00  0.00     0.223 C 
HETATM   20  C           1     173.943 185.619 288.820  0.00  0.00     0.036 C 
HETATM   21  C           1     173.594 186.217 290.182  0.00  0.00     0.002 C 
HETATM   22  C           1     172.516 187.268 289.926  0.00  0.00     0.002 C 
HETATM   23  C           1     172.543 187.508 288.424  0.00  0.00     0.036 C 
ENDBRANCH  16  19
ENDBRANCH  12  13
ENDBRANCH  11  12
ENDBRANCH   9  11
ENDBRANCH   8   9
ENDBRANCH   6   8
BRANCH   5  24
HETATM   24  S           1     172.075 188.112 281.533  0.00  0.00    -0.107 SA
BRANCH  24  25
HETATM   25  C           1     171.139 189.441 280.726  0.00  0.00     0.119 C 
BRANCH  25  26
HETATM   26  C           1     170.995 190.595 281.668  0.00  0.00    -0.049 A 
HETATM   27  C           1     171.827 191.707 281.543  0.00  0.00     0.008 A 
HETATM   28  C           1     171.693 192.782 282.421  0.00  0.00     0.001 A 
HETATM   29  C           1     170.727 192.744 283.426  0.00  0.00     0.000 A 
HETATM   30  C           1     169.895 191.632 283.552  0.00  0.00     0.001 A 
HETATM   31  C           1     170.029 190.558 282.674  0.00  0.00     0.008 A 
ENDBRANCH  25  26
ENDBRANCH  24  25
ENDBRANCH   5  24
BRANCH   1  32
HETATM   32  C           1     174.468 186.204 276.514  0.00  0.00    -0.021 A 
HETATM   33  C           1     175.852 186.164 276.343  0.00  0.00     0.057 A 
HETATM   34  C           1     176.392 185.710 275.138  0.00  0.00     0.150 A 
HETATM   35  F           1     177.702 185.672 274.976  0.00  0.00    -0.203 F 
HETATM   36  C           1     175.549 185.296 274.108  0.00  0.00     0.106 A 
HETATM   37  C           1     174.166 185.337 274.280  0.00  0.00     0.041 A 
HETATM   38  C           1     173.625 185.790 275.483  0.00  0.00     0.015 A 
BRANCH  36  39
HETATM   39  O           1     176.074 184.856 272.939  0.00  0.00    -0.353 OA
HETATM   40  C           1     175.059 184.519 272.033  0.00  0.00     0.210 C 
ENDBRANCH  36  39
ENDBRANCH   1  32
TORSDOF 11
ENDMDL
MODEL 4
REMARK VINA RESULT:      -7.1      5.842      7.995
REMARK  11 active torsions:
REMARK  status: ('A' for Active; 'I' for Inactive)
REMARK    1  A    between atoms: C_1  and  C_19 
REMARK    2  A    between atoms: C_5  and  S_30 
REMARK    3  A    between atoms: C_6  and  C_8 
REMARK    4  A    between atoms: C_8  and  N_9 
REMARK    5  A    between atoms: N_9  and  C_10 
REMARK    6  A    between atoms: C_10  and  C_11 
REMARK    7  A    between atoms: C_11  and  C_12 
REMARK    8  A    between atoms: N_15  and  C_18 
REMARK    9  A    between atoms: C_22  and  O_38 
REMARK   10  A    between atoms: S_30  and  C_37 
REMARK   11  A    between atoms: C_31  and  C_37 
ROOT
HETATM    1  C           1     173.793 186.148 281.455  0.00  0.00    -0.010 A 
HETATM    2  C           1     174.879 186.861 280.973  0.00  0.00     0.101 A 
HETATM    3  N           1     175.046 187.187 279.672  0.00  0.00    -0.359 N 
ATOM      4  HN          1     175.859 187.714 279.352  1.00  0.00     0.166 HD
HETATM    5  C           1     174.084 186.779 278.818  0.00  0.00     0.077 A 
HETATM    6  C           1     172.962 186.062 279.204  0.00  0.00     0.004 A 
HETATM    7  C           1     172.818 185.741 280.550  0.00  0.00     0.025 A 
ENDROOT
BRANCH   6   8
HETATM    8  C           1     171.934 185.643 278.200  0.00  0.00     0.311 C 
BRANCH   8   9
HETATM    9  N           1     170.659 186.205 278.554  0.00  0.00     0.087 N 
HETATM   10  H           1     169.914 185.641 278.146  0.00  0.00     0.316 HD
BRANCH   9  11
HETATM   11  C           1     170.604 187.537 278.016  0.00  0.00     0.270 C 
BRANCH  11  12
HETATM   12  C           1     169.533 187.604 276.934  0.00  0.00     0.034 C 
BRANCH  12  13
HETATM   13  C           1     170.151 188.115 275.639  0.00  0.00    -0.010 C 
HETATM   14  C           1     171.187 189.185 275.966  0.00  0.00     0.035 C 
HETATM   15  C           1     171.975 189.593 274.723  0.00  0.00     0.273 C 
HETATM   16  N           1     172.598 188.435 274.080  0.00  0.00     0.093 N 
HETATM   17  C           1     171.600 187.436 273.693  0.00  0.00     0.273 C 
HETATM   18  C           1     170.799 186.950 274.899  0.00  0.00     0.035 C 
BRANCH  16  19
HETATM   19  C           1     173.210 188.931 272.876  0.00  0.00     0.223 C 
HETATM   20  C           1     174.723 188.995 273.022  0.00  0.00     0.036 C 
HETATM   21  C           1     175.279 188.798 271.613  0.00  0.00     0.002 C 
HETATM   22  C           1     174.101 188.359 270.745  0.00  0.00     0.002 C 
HETATM   23  C           1     173.010 187.960 271.726  0.00  0.00     0.036 C 
ENDBRANCH  16  19
ENDBRANCH  12  13
ENDBRANCH  11  12
ENDBRANCH   9  11
ENDBRANCH   8   9
ENDBRANCH   6   8
BRANCH   5  24
HETATM   24  S           1     174.268 187.194 277.060  0.00  0.00    -0.107 SA
BRANCH  24  25
HETATM   25  C           1     175.381 185.802 276.717  0.00  0.00     0.119 C 
BRANCH  25  26
HETATM   26  C           1     175.554 185.654 275.238  0.00  0.00    -0.049 A 
HETATM   27  C           1     174.532 185.100 274.467  0.00  0.00     0.008 A 
HETATM   28  C           1     174.693 184.961 273.089  0.00  0.00     0.001 A 
HETATM   29  C           1     175.878 185.376 272.481  0.00  0.00     0.000 A 
HETATM   30  C           1     176.901 185.929 273.251  0.00  0.00     0.001 A 
HETATM   31  C           1     176.739 186.068 274.629  0.00  0.00     0.008 A 
ENDBRANCH  25  26
ENDBRANCH  24  25
ENDBRANCH   5  24
BRANCH   1  32
HETATM   32  C           1     173.685 185.858 282.756  0.00  0.00    -0.021 A 
HETATM   33  C           1     174.598 184.989 283.354  0.00  0.00     0.057 A 
HETATM   34  C           1     174.485 184.686 284.711  0.00  0.00     0.150 A 
HETATM   35  F           1     175.349 183.863 285.278  0.00  0.00    -0.203 F 
HETATM   36  C           1     173.462 185.253 285.470  0.00  0.00     0.106 A 
HETATM   37  C           1     172.550 186.122 284.872  0.00  0.00     0.041 A 
HETATM   38  C           1     172.662 186.425 283.515  0.00  0.00     0.015 A 
BRANCH  36  39
HETATM   39  O           1     173.354 184.959 286.788  0.00  0.00    -0.353 OA
HETATM   40  C           1     174.130 185.835 287.559  0.00  0.00     0.210 C 
ENDBRANCH  36  39
ENDBRANCH   1  32
TORSDOF 11
ENDMDL
MODEL 5
REMARK VINA RESULT:      -6.9      1.987      3.121
REMARK  11 active torsions:
REMARK  status: ('A' for Active; 'I' for Inactive)
REMARK    1  A    between atoms: C_1  and  C_19 
REMARK    2  A    between atoms: C_5  and  S_30 
REMARK    3  A    between atoms: C_6  and  C_8 
REMARK    4  A    between atoms: C_8  and  N_9 
REMARK    5  A    between atoms: N_9  and  C_10 
REMARK    6  A    between atoms: C_10  and  C_11 
REMARK    7  A    between atoms: C_11  and  C_12 
REMARK    8  A    between atoms: N_15  and  C_18 
REMARK    9  A    between atoms: C_22  and  O_38 
REMARK   10  A    between atoms: S_30  and  C_37 
REMARK   11  A    between atoms: C_31  and  C_37 
ROOT
HETATM    1  C           1     175.373 185.065 271.933  0.00  0.00    -0.010 A 
HETATM    2  C           1     176.045 185.501 270.802  0.00  0.00     0.101 A 
HETATM    3  N           1     175.676 185.186 269.540  0.00  0.00    -0.359 N 
ATOM      4  HN          1     176.194 185.525 268.730  1.00  0.00     0.166 HD
HETATM    5  C           1     174.587 184.398 269.408  0.00  0.00     0.077 A 
HETATM    6  C           1     173.851 183.913 270.477  0.00  0.00     0.004 A 
HETATM    7  C           1     174.255 184.255 271.764  0.00  0.00     0.025 A 
ENDROOT
BRANCH   6   8
HETATM    8  C           1     172.653 183.043 270.254  0.00  0.00     0.311 C 
BRANCH   8   9
HETATM    9  N           1     171.564 183.507 271.070  0.00  0.00     0.087 N 
HETATM   10  H           1     170.837 182.793 271.104  0.00  0.00     0.316 HD
BRANCH   9  11
HETATM   11  C           1     171.039 184.699 270.462  0.00  0.00     0.270 C 
BRANCH  11  12
HETATM   12  C           1     170.408 185.580 271.533  0.00  0.00     0.034 C 
BRANCH  12  13
HETATM   13  C           1     171.168 186.897 271.620  0.00  0.00    -0.010 C 
HETATM   14  C           1     171.999 186.913 272.899  0.00  0.00     0.035 C 
HETATM   15  C           1     172.929 188.124 272.942  0.00  0.00     0.273 C 
HETATM   16  N           1     173.785 188.183 271.756  0.00  0.00     0.093 N 
HETATM   17  C           1     172.993 188.246 270.526  0.00  0.00     0.273 C 
HETATM   18  C           1     172.066 187.039 270.396  0.00  0.00     0.035 C 
BRANCH  16  19
HETATM   19  C           1     174.526 189.411 271.862  0.00  0.00     0.223 C 
HETATM   20  C           1     175.606 189.488 270.794  0.00  0.00     0.036 C 
HETATM   21  C           1     175.796 190.978 270.510  0.00  0.00     0.002 C 
HETATM   22  C           1     174.646 191.698 271.213  0.00  0.00     0.002 C 
HETATM   23  C           1     173.643 190.607 271.555  0.00  0.00     0.036 C 
ENDBRANCH  16  19
ENDBRANCH  12  13
ENDBRANCH  11  12
ENDBRANCH   9  11
ENDBRANCH   8   9
ENDBRANCH   6   8
BRANCH   5  24
HETATM   24  S           1     174.057 183.949 267.732  0.00  0.00    -0.107 SA
BRANCH  24  25
HETATM   25  C           1     175.189 185.114 266.923  0.00  0.00     0.119 C 
BRANCH  25  26
HETATM   26  C           1     175.957 184.404 265.852  0.00  0.00    -0.049 A 
HETATM   27  C           1     176.839 183.377 266.189  0.00  0.00     0.008 A 
HETATM   28  C           1     177.554 182.716 265.192  0.00  0.00     0.001 A 
HETATM   29  C           1     177.388 183.083 263.856  0.00  0.00     0.000 A 
HETATM   30  C           1     176.507 184.109 263.519  0.00  0.00     0.001 A 
HETATM   31  C           1     175.792 184.770 264.517  0.00  0.00     0.008 A 
ENDBRANCH  25  26
ENDBRANCH  24  25
ENDBRANCH   5  24
BRANCH   1  32
HETATM   32  C           1     175.789 185.414 273.155  0.00  0.00    -0.021 A 
HETATM   33  C           1     175.036 185.059 274.275  0.00  0.00     0.057 A 
HETATM   34  C           1     175.470 185.423 275.550  0.00  0.00     0.150 A 
HETATM   35  F           1     174.758 185.088 276.610  0.00  0.00    -0.203 F 
HETATM   36  C           1     176.655 186.141 275.705  0.00  0.00     0.106 A 
HETATM   37  C           1     177.407 186.496 274.585  0.00  0.00     0.041 A 
HETATM   38  C           1     176.974 186.132 273.310  0.00  0.00     0.015 A 
BRANCH  36  39
HETATM   39  O           1     177.076 186.495 276.943  0.00  0.00    -0.353 OA
HETATM   40  C           1     178.248 185.806 277.286  0.00  0.00     0.210 C 
ENDBRANCH  36  39
ENDBRANCH   1  32
TORSDOF 11
ENDMDL
MODEL 6
REMARK VINA RESULT:      -6.9      7.399      9.624
REMARK  11 active torsions:
REMARK  status: ('A' for Active; 'I' for Inactive)
REMARK    1  A    between atoms: C_1  and  C_19 
REMARK    2  A    between atoms: C_5  and  S_30 
REMARK    3  A    between atoms: C_6  and  C_8 
REMARK    4  A    between atoms: C_8  and  N_9 
REMARK    5  A    between atoms: N_9  and  C_10 
REMARK    6  A    between atoms: C_10  and  C_11 
REMARK    7  A    between atoms: C_11  and  C_12 
REMARK    8  A    between atoms: N_15  and  C_18 
REMARK    9  A    between atoms: C_22  and  O_38 
REMARK   10  A    between atoms: S_30  and  C_37 
REMARK   11  A    between atoms: C_31  and  C_37 
ROOT
HETATM    1  C           1     173.674 186.394 280.842  0.00  0.00    -0.010 A 
HETATM    2  C           1     174.688 186.968 280.092  0.00  0.00     0.101 A 
HETATM    3  N           1     174.623 187.150 278.755  0.00  0.00    -0.359 N 
ATOM      4  HN          1     175.389 187.578 278.234  1.00  0.00     0.166 HD
HETATM    5  C           1     173.493 186.736 278.142  0.00  0.00     0.077 A 
HETATM    6  C           1     172.425 186.151 278.805  0.00  0.00     0.004 A 
HETATM    7  C           1     172.522 185.977 280.182  0.00  0.00     0.025 A 
ENDROOT
BRANCH   6   8
HETATM    8  C           1     171.203 185.717 278.060  0.00  0.00     0.311 C 
BRANCH   8   9
HETATM    9  N           1     170.072 186.489 278.499  0.00  0.00     0.087 N 
HETATM   10  H           1     169.264 185.877 278.608  0.00  0.00     0.316 HD
BRANCH   9  11
HETATM   11  C           1     169.796 187.474 277.488  0.00  0.00     0.270 C 
BRANCH  11  12
HETATM   12  C           1     168.759 188.460 278.009  0.00  0.00     0.034 C 
BRANCH  12  13
HETATM   13  C           1     169.382 189.327 279.095  0.00  0.00    -0.010 C 
HETATM   14  C           1     170.168 190.459 278.442  0.00  0.00     0.035 C 
HETATM   15  C           1     170.652 191.470 279.480  0.00  0.00     0.273 C 
HETATM   16  N           1     169.541 191.992 280.277  0.00  0.00     0.093 N 
HETATM   17  C           1     168.826 190.918 280.969  0.00  0.00     0.273 C 
HETATM   18  C           1     168.277 189.888 279.985  0.00  0.00     0.035 C 
BRANCH  16  19
HETATM   19  C           1     170.133 192.839 281.278  0.00  0.00     0.223 C 
HETATM   20  C           1     169.102 193.256 282.315  0.00  0.00     0.036 C 
HETATM   21  C           1     169.887 193.469 283.609  0.00  0.00     0.002 C 
HETATM   22  C           1     171.288 192.914 283.357  0.00  0.00     0.002 C 
HETATM   23  C           1     171.163 192.079 282.093  0.00  0.00     0.036 C 
ENDBRANCH  16  19
ENDBRANCH  12  13
ENDBRANCH  11  12
ENDBRANCH   9  11
ENDBRANCH   8   9
ENDBRANCH   6   8
BRANCH   5  24
HETATM   24  S           1     173.363 186.961 276.346  0.00  0.00    -0.107 SA
BRANCH  24  25
HETATM   25  C           1     174.225 185.411 275.962  0.00  0.00     0.119 C 
BRANCH  25  26
HETATM   26  C           1     175.621 185.713 275.514  0.00  0.00    -0.049 A 
HETATM   27  C           1     175.861 186.116 274.200  0.00  0.00     0.008 A 
HETATM   28  C           1     177.161 186.397 273.782  0.00  0.00     0.001 A 
HETATM   29  C           1     178.222 186.274 274.678  0.00  0.00     0.000 A 
HETATM   30  C           1     177.984 185.871 275.992  0.00  0.00     0.001 A 
HETATM   31  C           1     176.683 185.590 276.409  0.00  0.00     0.008 A 
ENDBRANCH  25  26
ENDBRANCH  24  25
ENDBRANCH   5  24
BRANCH   1  32
HETATM   32  C           1     173.799 186.243 282.165  0.00  0.00    -0.021 A 
HETATM   33  C           1     175.063 186.283 282.753  0.00  0.00     0.057 A 
HETATM   34  C           1     175.194 186.125 284.134  0.00  0.00     0.150 A 
HETATM   35  F           1     176.391 186.162 284.692  0.00  0.00    -0.203 F 
HETATM   36  C           1     174.063 185.929 284.924  0.00  0.00     0.106 A 
HETATM   37  C           1     172.799 185.888 284.334  0.00  0.00     0.041 A 
HETATM   38  C           1     172.668 186.046 282.955  0.00  0.00     0.015 A 
BRANCH  36  39
HETATM   39  O           1     174.190 185.776 286.264  0.00  0.00    -0.353 OA
HETATM   40  C           1     173.225 184.887 286.757  0.00  0.00     0.210 C 
ENDBRANCH  36  39
ENDBRANCH   1  32
TORSDOF 11
ENDMDL
MODEL 7
REMARK VINA RESULT:      -6.8      5.035      8.833
REMARK  11 active torsions:
REMARK  status: ('A' for Active; 'I' for Inactive)
REMARK    1  A    between atoms: C_1  and  C_19 
REMARK    2  A    between atoms: C_5  and  S_30 
REMARK    3  A    between atoms: C_6  and  C_8 
REMARK    4  A    between atoms: C_8  and  N_9 
REMARK    5  A    between atoms: N_9  and  C_10 
REMARK    6  A    between atoms: C_10  and  C_11 
REMARK    7  A    between atoms: C_11  and  C_12 
REMARK    8  A    between atoms: N_15  and  C_18 
REMARK    9  A    between atoms: C_22  and  O_38 
REMARK   10  A    between atoms: S_30  and  C_37 
REMARK   11  A    between atoms: C_31  and  C_37 
ROOT
HETATM    1  C           1     174.520 186.182 276.730  0.00  0.00    -0.010 A 
HETATM    2  C           1     175.311 186.780 277.698  0.00  0.00     0.101 A 
HETATM    3  N           1     174.888 187.049 278.953  0.00  0.00    -0.359 N 
ATOM      4  HN          1     175.499 187.490 279.642  1.00  0.00     0.166 HD
HETATM    5  C           1     173.617 186.704 279.250  0.00  0.00     0.077 A 
HETATM    6  C           1     172.750 186.102 278.351  0.00  0.00     0.004 A 
HETATM    7  C           1     173.215 185.839 277.066  0.00  0.00     0.025 A 
ENDROOT
BRANCH   6   8
HETATM    8  C           1     171.353 185.747 278.750  0.00  0.00     0.311 C 
BRANCH   8   9
HETATM    9  N           1     170.455 186.791 278.335  0.00  0.00     0.087 N 
HETATM   10  H           1     169.627 186.783 278.931  0.00  0.00     0.316 HD
BRANCH   9  11
HETATM   11  C           1     170.071 186.522 276.976  0.00  0.00     0.270 C 
BRANCH  11  12
HETATM   12  C           1     170.058 187.823 276.185  0.00  0.00     0.034 C 
BRANCH  12  13
HETATM   13  C           1     171.097 187.752 275.073  0.00  0.00    -0.010 C 
HETATM   14  C           1     170.407 187.960 273.728  0.00  0.00     0.035 C 
HETATM   15  C           1     171.424 188.093 272.597  0.00  0.00     0.273 C 
HETATM   16  N           1     172.387 189.162 272.866  0.00  0.00     0.093 N 
HETATM   17  C           1     173.109 188.931 274.118  0.00  0.00     0.273 C 
HETATM   18  C           1     172.152 188.829 275.304  0.00  0.00     0.035 C 
BRANCH  16  19
HETATM   19  C           1     173.344 189.113 271.793  0.00  0.00     0.223 C 
HETATM   20  C           1     173.579 190.499 271.211  0.00  0.00     0.036 C 
HETATM   21  C           1     175.012 190.484 270.683  0.00  0.00     0.002 C 
HETATM   22  C           1     175.650 189.200 271.211  0.00  0.00     0.002 C 
HETATM   23  C           1     174.715 188.712 272.307  0.00  0.00     0.036 C 
ENDBRANCH  16  19
ENDBRANCH  12  13
ENDBRANCH  11  12
ENDBRANCH   9  11
ENDBRANCH   8   9
ENDBRANCH   6   8
BRANCH   5  24
HETATM   24  S           1     173.007 187.047 280.924  0.00  0.00    -0.107 SA
BRANCH  24  25
HETATM   25  C           1     174.471 186.350 281.738  0.00  0.00     0.119 C 
BRANCH  25  26
HETATM   26  C           1     174.104 185.878 283.110  0.00  0.00    -0.049 A 
HETATM   27  C           1     172.772 185.908 283.526  0.00  0.00     0.008 A 
HETATM   28  C           1     172.429 185.469 284.804  0.00  0.00     0.001 A 
HETATM   29  C           1     173.419 185.001 285.668  0.00  0.00     0.000 A 
HETATM   30  C           1     174.750 184.971 285.254  0.00  0.00     0.001 A 
HETATM   31  C           1     175.092 185.409 283.975  0.00  0.00     0.008 A 
ENDBRANCH  25  26
ENDBRANCH  24  25
ENDBRANCH   5  24
BRANCH   1  32
HETATM   32  C           1     175.000 185.942 275.505  0.00  0.00    -0.021 A 
HETATM   33  C           1     176.321 186.267 275.198  0.00  0.00     0.057 A 
HETATM   34  C           1     176.821 186.016 273.919  0.00  0.00     0.150 A 
HETATM   35  F           1     178.071 186.323 273.627  0.00  0.00    -0.203 F 
HETATM   36  C           1     176.000 185.440 272.950  0.00  0.00     0.106 A 
HETATM   37  C           1     174.679 185.117 273.258  0.00  0.00     0.041 A 
HETATM   38  C           1     174.179 185.366 274.536  0.00  0.00     0.015 A 
BRANCH  36  39
HETATM   39  O           1     176.486 185.197 271.709  0.00  0.00    -0.353 OA
HETATM   40  C           1     175.890 184.055 271.156  0.00  0.00     0.210 C 
ENDBRANCH  36  39
ENDBRANCH   1  32
TORSDOF 11
ENDMDL
MODEL 8
REMARK VINA RESULT:      -6.8      4.429      7.460
REMARK  11 active torsions:
REMARK  status: ('A' for Active; 'I' for Inactive)
REMARK    1  A    between atoms: C_1  and  C_19 
REMARK    2  A    between atoms: C_5  and  S_30 
REMARK    3  A    between atoms: C_6  and  C_8 
REMARK    4  A    between atoms: C_8  and  N_9 
REMARK    5  A    between atoms: N_9  and  C_10 
REMARK    6  A    between atoms: C_10  and  C_11 
REMARK    7  A    between atoms: C_11  and  C_12 
REMARK    8  A    between atoms: N_15  and  C_18 
REMARK    9  A    between atoms: C_22  and  O_38 
REMARK   10  A    between atoms: S_30  and  C_37 
REMARK   11  A    between atoms: C_31  and  C_37 
ROOT
HETATM    1  C           1     175.492 185.573 272.095  0.00  0.00    -0.010 A 
HETATM    2  C           1     174.357 186.261 271.698  0.00  0.00     0.101 A 
HETATM    3  N           1     173.806 186.158 270.468  0.00  0.00    -0.359 N 
ATOM      4  HN          1     172.968 186.679 270.210  1.00  0.00     0.166 HD
HETATM    5  C           1     174.423 185.329 269.598  0.00  0.00     0.077 A 
HETATM    6  C           1     175.562 184.600 269.902  0.00  0.00     0.004 A 
HETATM    7  C           1     176.105 184.728 271.176  0.00  0.00     0.025 A 
ENDROOT
BRANCH   6   8
HETATM    8  C           1     176.191 183.700 268.885  0.00  0.00     0.311 C 
BRANCH   8   9
HETATM    9  N           1     177.358 184.337 268.336  0.00  0.00     0.087 N 
HETATM   10  H           1     177.329 185.335 268.542  0.00  0.00     0.316 HD
BRANCH   9  11
HETATM   11  C           1     177.334 184.140 266.912  0.00  0.00     0.270 C 
BRANCH  11  12
HETATM   12  C           1     176.533 182.886 266.585  0.00  0.00     0.034 C 
BRANCH  12  13
HETATM   13  C           1     176.734 182.522 265.120  0.00  0.00    -0.010 C 
HETATM   14  C           1     176.765 183.799 264.286  0.00  0.00     0.035 C 
HETATM   15  C           1     177.157 183.507 262.839  0.00  0.00     0.273 C 
HETATM   16  N           1     178.434 182.798 262.763  0.00  0.00     0.093 N 
HETATM   17  C           1     178.389 181.533 263.498  0.00  0.00     0.273 C 
HETATM   18  C           1     178.042 181.753 264.969  0.00  0.00     0.035 C 
BRANCH  16  19
HETATM   19  C           1     178.636 182.489 261.373  0.00  0.00     0.223 C 
HETATM   20  C           1     179.949 181.750 261.165  0.00  0.00     0.036 C 
HETATM   21  C           1     179.734 180.871 259.934  0.00  0.00     0.002 C 
HETATM   22  C           1     178.237 180.918 259.630  0.00  0.00     0.002 C 
HETATM   23  C           1     177.595 181.499 260.880  0.00  0.00     0.036 C 
ENDBRANCH  16  19
ENDBRANCH  12  13
ENDBRANCH  11  12
ENDBRANCH   9  11
ENDBRANCH   8   9
ENDBRANCH   6   8
BRANCH   5  24
HETATM   24  S           1     173.718 185.160 267.934  0.00  0.00    -0.107 SA
BRANCH  24  25
HETATM   25  C           1     174.594 186.607 267.277  0.00  0.00     0.119 C 
BRANCH  25  26
HETATM   26  C           1     173.664 187.779 267.236  0.00  0.00    -0.049 A 
HETATM   27  C           1     172.388 187.637 266.691  0.00  0.00     0.008 A 
HETATM   28  C           1     171.520 188.729 266.652  0.00  0.00     0.001 A 
HETATM   29  C           1     171.931 189.963 267.157  0.00  0.00     0.000 A 
HETATM   30  C           1     173.207 190.105 267.701  0.00  0.00     0.001 A 
HETATM   31  C           1     174.073 189.013 267.740  0.00  0.00     0.008 A 
ENDBRANCH  25  26
ENDBRANCH  24  25
ENDBRANCH   5  24
BRANCH   1  32
HETATM   32  C           1     175.987 185.719 273.329  0.00  0.00    -0.021 A 
HETATM   33  C           1     175.237 185.311 274.432  0.00  0.00     0.057 A 
HETATM   34  C           1     175.753 185.463 275.720  0.00  0.00     0.150 A 
HETATM   35  F           1     175.044 185.078 276.765  0.00  0.00    -0.203 F 
HETATM   36  C           1     177.018 186.022 275.903  0.00  0.00     0.106 A 
HETATM   37  C           1     177.766 186.430 274.800  0.00  0.00     0.041 A 
HETATM   38  C           1     177.251 186.278 273.512  0.00  0.00     0.015 A 
BRANCH  36  39
HETATM   39  O           1     177.518 186.169 277.153  0.00  0.00    -0.353 OA
HETATM   40  C           1     178.652 185.365 277.334  0.00  0.00     0.210 C 
ENDBRANCH  36  39
ENDBRANCH   1  32
TORSDOF 11
ENDMDL
MODEL 9
REMARK VINA RESULT:      -6.7      2.675      4.191
REMARK  11 active torsions:
REMARK  status: ('A' for Active; 'I' for Inactive)
REMARK    1  A    between atoms: C_1  and  C_19 
REMARK    2  A    between atoms: C_5  and  S_30 
REMARK    3  A    between atoms: C_6  and  C_8 
REMARK    4  A    between atoms: C_8  and  N_9 
REMARK    5  A    between atoms: N_9  and  C_10 
REMARK    6  A    between atoms: C_10  and  C_11 
REMARK    7  A    between atoms: C_11  and  C_12 
REMARK    8  A    between atoms: N_15  and  C_18 
REMARK    9  A    between atoms: C_22  and  O_38 
REMARK   10  A    between atoms: S_30  and  C_37 
REMARK   11  A    between atoms: C_31  and  C_37 
ROOT
HETATM    1  C           1     175.353 184.685 271.237  0.00  0.00    -0.010 A 
HETATM    2  C           1     176.390 184.142 270.496  0.00  0.00     0.101 A 
HETATM    3  N           1     176.252 183.687 269.231  0.00  0.00    -0.359 N 
ATOM      4  HN          1     177.038 183.294 268.713  1.00  0.00     0.166 HD
HETATM    5  C           1     175.020 183.780 268.686  0.00  0.00     0.077 A 
HETATM    6  C           1     173.921 184.307 269.347  0.00  0.00     0.004 A 
HETATM    7  C           1     174.095 184.766 270.649  0.00  0.00     0.025 A 
ENDROOT
BRANCH   6   8
HETATM    8  C           1     172.584 184.378 268.679  0.00  0.00     0.311 C 
BRANCH   8   9
HETATM    9  N           1     172.244 185.753 268.431  0.00  0.00     0.087 N 
HETATM   10  H           1     171.249 185.894 268.605  0.00  0.00     0.316 HD
BRANCH   9  11
HETATM   11  C           1     172.534 186.033 267.051  0.00  0.00     0.270 C 
BRANCH  11  12
HETATM   12  C           1     173.593 187.125 266.966  0.00  0.00     0.034 C 
BRANCH  12  13
HETATM   13  C           1     173.617 187.913 268.269  0.00  0.00    -0.010 C 
HETATM   14  C           1     175.016 187.843 268.871  0.00  0.00     0.035 C 
HETATM   15  C           1     175.149 188.774 270.075  0.00  0.00     0.273 C 
HETATM   16  N           1     174.792 190.150 269.730  0.00  0.00     0.093 N 
HETATM   17  C           1     173.422 190.237 269.222  0.00  0.00     0.273 C 
HETATM   18  C           1     173.227 189.360 267.987  0.00  0.00     0.035 C 
BRANCH  16  19
HETATM   19  C           1     174.852 190.897 270.958  0.00  0.00     0.223 C 
HETATM   20  C           1     175.575 192.219 270.756  0.00  0.00     0.036 C 
HETATM   21  C           1     174.972 193.177 271.782  0.00  0.00     0.002 C 
HETATM   22  C           1     173.745 192.472 272.357  0.00  0.00     0.002 C 
HETATM   23  C           1     173.464 191.321 271.404  0.00  0.00     0.036 C 
ENDBRANCH  16  19
ENDBRANCH  12  13
ENDBRANCH  11  12
ENDBRANCH   9  11
ENDBRANCH   8   9
ENDBRANCH   6   8
BRANCH   5  24
HETATM   24  S           1     174.789 183.181 266.989  0.00  0.00    -0.107 SA
BRANCH  24  25
HETATM   25  C           1     176.079 184.254 266.298  0.00  0.00     0.119 C 
BRANCH  25  26
HETATM   26  C           1     176.769 183.547 265.174  0.00  0.00    -0.049 A 
HETATM   27  C           1     177.474 182.368 265.418  0.00  0.00     0.008 A 
HETATM   28  C           1     178.116 181.709 264.371  0.00  0.00     0.001 A 
HETATM   29  C           1     178.055 182.230 263.079  0.00  0.00     0.000 A 
HETATM   30  C           1     177.351 183.408 262.834  0.00  0.00     0.001 A 
HETATM   31  C           1     176.709 184.066 263.881  0.00  0.00     0.008 A 
ENDBRANCH  25  26
ENDBRANCH  24  25
ENDBRANCH   5  24
BRANCH   1  32
HETATM   32  C           1     175.556 185.118 272.486  0.00  0.00    -0.021 A 
HETATM   33  C           1     176.771 185.710 272.829  0.00  0.00     0.057 A 
HETATM   34  C           1     176.983 186.162 274.133  0.00  0.00     0.150 A 
HETATM   35  F           1     178.133 186.722 274.458  0.00  0.00    -0.203 F 
HETATM   36  C           1     175.979 186.023 275.090  0.00  0.00     0.106 A 
HETATM   37  C           1     174.764 185.431 274.747  0.00  0.00     0.041 A 
HETATM   38  C           1     174.552 184.979 273.444  0.00  0.00     0.015 A 
BRANCH  36  39
HETATM   39  O           1     176.185 186.462 276.355  0.00  0.00    -0.353 OA
HETATM   40  C           1     175.005 186.992 276.897  0.00  0.00     0.210 C 
ENDBRANCH  36  39
ENDBRANCH   1  32
TORSDOF 11
ENDMDL
