MODEL 1
REMARK VINA RESULT:      -8.0      0.000      0.000
REMARK  10 active torsions:
REMARK  status: ('A' for Active; 'I' for Inactive)
REMARK    1  A    between atoms: C_2  and  C_17 
REMARK    2  A    between atoms: C_4  and  S_8 
REMARK    3  A    between atoms: C_5  and  C_7 
REMARK    4  A    between atoms: C_7  and  N_16 
REMARK    5  A    between atoms: S_8  and  C_9 
REMARK    6  A    between atoms: C_9  and  C_10 
REMARK    7  A    between atoms: N_16  and  C_18 
REMARK    8  A    between atoms: C_18  and  C_19 
REMARK    9  A    between atoms: C_19  and  N_20 
REMARK   10  A    between atoms: C_29  and  N_32 
ROOT
HETATM    1  C           1     174.684 186.825 280.211  0.00  0.00     0.130 A 
HETATM    2  C           1     173.641 186.241 280.913  0.00  0.00    -0.008 A 
HETATM    3  N           1     174.646 187.089 278.887  0.00  0.00    -0.253 NA
HETATM    4  C           1     173.511 186.753 278.236  0.00  0.00     0.101 A 
HETATM    5  C           1     172.415 186.166 278.850  0.00  0.00     0.006 A 
HETATM    6  C           1     172.485 185.906 280.214  0.00  0.00     0.025 A 
ENDROOT
BRANCH   5   7
HETATM    7  C           1     171.188 185.821 278.063  0.00  0.00     0.311 C 
BRANCH   7   8
HETATM    8  N           1     170.080 186.606 278.536  0.00  0.00     0.089 N 
HETATM    9  H           1     169.251 186.014 278.608  0.00  0.00     0.316 HD
BRANCH   8  10
HETATM   10  C           1     169.842 187.649 277.576  0.00  0.00     0.300 C 
BRANCH  10  11
HETATM   11  C           1     170.401 188.963 278.104  0.00  0.00     0.302 C 
BRANCH  11  12
HETATM   12  N           1     170.091 189.089 279.503  0.00  0.00     0.093 N 
HETATM   13  C           1     171.332 189.503 280.182  0.00  0.00     0.302 C 
HETATM   14  C           1     171.102 189.927 281.649  0.00  0.00     0.302 C 
HETATM   15  N           1     170.091 190.989 281.789  0.00  0.00     0.087 N 
HETATM   16  C           1     169.801 191.109 283.193  0.00  0.00     0.310 C 
HETATM   17  C           1     168.850 190.575 281.110  0.00  0.00     0.302 C 
HETATM   18  C           1     169.078 190.151 279.643  0.00  0.00     0.302 C 
ENDBRANCH  11  12
ENDBRANCH  10  11
ENDBRANCH   8  10
ENDBRANCH   7   8
ENDBRANCH   5   7
BRANCH   4  19
HETATM   19  S           1     173.414 187.089 276.455  0.00  0.00    -0.105 SA
BRANCH  19  20
HETATM   20  C           1     174.197 185.520 275.988  0.00  0.00     0.119 C 
BRANCH  20  21
HETATM   21  C           1     175.608 185.775 275.555  0.00  0.00    -0.049 A 
HETATM   22  C           1     175.873 186.170 274.244  0.00  0.00     0.008 A 
HETATM   23  C           1     177.188 186.408 273.841  0.00  0.00     0.001 A 
HETATM   24  C           1     178.235 186.253 274.749  0.00  0.00     0.000 A 
HETATM   25  C           1     177.969 185.859 276.060  0.00  0.00     0.001 A 
HETATM   26  C           1     176.655 185.620 276.464  0.00  0.00     0.008 A 
ENDBRANCH  20  21
ENDBRANCH  19  20
ENDBRANCH   4  19
BRANCH   2  27
HETATM   27  C           1     173.742 186.006 282.224  0.00  0.00    -0.024 A 
HETATM   28  C           1     172.737 186.439 283.090  0.00  0.00     0.014 A 
HETATM   29  C           1     172.842 186.195 284.458  0.00  0.00     0.030 A 
HETATM   30  C           1     173.952 185.518 284.963  0.00  0.00     0.029 A 
HETATM   31  C           1     174.957 185.085 284.098  0.00  0.00     0.030 A 
HETATM   32  C           1     174.852 185.329 282.729  0.00  0.00     0.014 A 
BRANCH  30  33
HETATM   33  N           1     174.048 185.296 286.206  0.00  0.00    -0.390 N 
HETATM   34  C           1     175.362 185.342 286.861  0.00  0.00     0.149 C 
HETATM   35  C           1     172.844 184.990 286.992  0.00  0.00     0.149 C 
ENDBRANCH  30  33
ENDBRANCH   2  27
TORSDOF 10
ENDMDL
MODEL 2
REMARK VINA RESULT:      -7.8      1.963      3.619
REMARK  10 active torsions:
REMARK  status: ('A' for Active; 'I' for Inactive)
REMARK    1  A    between atoms: C_2  and  C_17 
REMARK    2  A    between atoms: C_4  and  S_8 
REMARK    3  A    between atoms: C_5  and  C_7 
REMARK    4  A    between atoms: C_7  and  N_16 
REMARK    5  A    between atoms: S_8  and  C_9 
REMARK    6  A    between atoms: C_9  and  C_10 
REMARK    7  A    between atoms: N_16  and  C_18 
REMARK    8  A    between atoms: C_18  and  C_19 
REMARK    9  A    between atoms: C_19  and  N_20 
REMARK   10  A    between atoms: C_29  and  N_32 
ROOT
HETATM    1  C           1     174.614 186.755 280.105  0.00  0.00     0.130 A 
HETATM    2  C           1     173.535 186.238 280.805  0.00  0.00    -0.008 A 
HETATM    3  N           1     174.595 187.015 278.780  0.00  0.00    -0.253 NA
HETATM    4  C           1     173.444 186.746 278.126  0.00  0.00     0.101 A 
HETATM    5  C           1     172.312 186.229 278.739  0.00  0.00     0.006 A 
HETATM    6  C           1     172.363 185.971 280.105  0.00  0.00     0.025 A 
ENDROOT
BRANCH   5   7
HETATM    7  C           1     171.069 185.956 277.950  0.00  0.00     0.311 C 
BRANCH   7   8
HETATM    8  N           1     169.957 186.637 278.557  0.00  0.00     0.089 N 
HETATM    9  H           1     169.208 185.969 278.741  0.00  0.00     0.316 HD
BRANCH   8  10
HETATM   10  C           1     169.494 187.631 277.627  0.00  0.00     0.300 C 
BRANCH  10  11
HETATM   11  C           1     169.080 186.958 276.326  0.00  0.00     0.302 C 
BRANCH  11  12
HETATM   12  N           1     169.350 187.838 275.222  0.00  0.00     0.093 N 
HETATM   13  C           1     170.057 189.009 275.768  0.00  0.00     0.302 C 
HETATM   14  C           1     170.641 189.926 274.672  0.00  0.00     0.302 C 
HETATM   15  N           1     171.527 189.212 273.737  0.00  0.00     0.087 N 
HETATM   16  C           1     171.796 190.109 272.645  0.00  0.00     0.310 C 
HETATM   17  C           1     170.820 188.040 273.190  0.00  0.00     0.302 C 
HETATM   18  C           1     170.235 187.123 274.286  0.00  0.00     0.302 C 
ENDBRANCH  11  12
ENDBRANCH  10  11
ENDBRANCH   8  10
ENDBRANCH   7   8
ENDBRANCH   5   7
BRANCH   4  19
HETATM   19  S           1     173.373 187.081 276.344  0.00  0.00    -0.105 SA
BRANCH  19  20
HETATM   20  C           1     174.163 185.511 275.890  0.00  0.00     0.119 C 
BRANCH  20  21
HETATM   21  C           1     175.585 185.764 275.496  0.00  0.00    -0.049 A 
HETATM   22  C           1     176.612 185.537 276.413  0.00  0.00     0.008 A 
HETATM   23  C           1     177.938 185.772 276.046  0.00  0.00     0.001 A 
HETATM   24  C           1     178.235 186.233 274.764  0.00  0.00     0.000 A 
HETATM   25  C           1     177.208 186.458 273.848  0.00  0.00     0.001 A 
HETATM   26  C           1     175.883 186.223 274.214  0.00  0.00     0.008 A 
ENDBRANCH  20  21
ENDBRANCH  19  20
ENDBRANCH   4  19
BRANCH   2  27
HETATM   27  C           1     173.618 186.002 282.118  0.00  0.00    -0.024 A 
HETATM   28  C           1     174.604 185.149 282.613  0.00  0.00     0.014 A 
HETATM   29  C           1     174.690 184.902 283.983  0.00  0.00     0.030 A 
HETATM   30  C           1     173.790 185.508 284.859  0.00  0.00     0.029 A 
HETATM   31  C           1     172.803 186.361 284.364  0.00  0.00     0.030 A 
HETATM   32  C           1     172.717 186.608 282.994  0.00  0.00     0.014 A 
BRANCH  30  33
HETATM   33  N           1     173.867 185.284 286.102  0.00  0.00    -0.390 N 
HETATM   34  C           1     175.174 185.310 286.774  0.00  0.00     0.149 C 
HETATM   35  C           1     172.649 184.997 286.874  0.00  0.00     0.149 C 
ENDBRANCH  30  33
ENDBRANCH   2  27
TORSDOF 10
ENDMDL
MODEL 3
REMARK VINA RESULT:      -7.7      1.798      3.092
REMARK  10 active torsions:
REMARK  status: ('A' for Active; 'I' for Inactive)
REMARK    1  A    between atoms: C_2  and  C_17 
REMARK    2  A    between atoms: C_4  and  S_8 
REMARK    3  A    between atoms: C_5  and  C_7 
REMARK    4  A    between atoms: C_7  and  N_16 
REMARK    5  A    between atoms: S_8  and  C_9 
REMARK    6  A    between atoms: C_9  and  C_10 
REMARK    7  A    between atoms: N_16  and  C_18 
REMARK    8  A    between atoms: C_18  and  C_19 
REMARK    9  A    between atoms: C_19  and  N_20 
REMARK   10  A    between atoms: C_29  and  N_32 
ROOT
HETATM    1  C           1     174.663 186.802 280.141  0.00  0.00     0.130 A 
HETATM    2  C           1     173.625 186.204 280.838  0.00  0.00    -0.008 A 
HETATM    3  N           1     174.628 187.063 278.817  0.00  0.00    -0.253 NA
HETATM    4  C           1     173.501 186.711 278.160  0.00  0.00     0.101 A 
HETATM    5  C           1     172.411 186.109 278.769  0.00  0.00     0.006 A 
HETATM    6  C           1     172.477 185.853 280.134  0.00  0.00     0.025 A 
ENDROOT
BRANCH   5   7
HETATM    7  C           1     171.193 185.746 277.976  0.00  0.00     0.311 C 
BRANCH   7   8
HETATM    8  N           1     170.067 186.502 278.455  0.00  0.00     0.089 N 
HETATM    9  H           1     169.310 185.863 278.703  0.00  0.00     0.316 HD
BRANCH   8  10
HETATM   10  C           1     169.636 187.365 277.389  0.00  0.00     0.300 C 
BRANCH  10  11
HETATM   11  C           1     169.752 188.817 277.832  0.00  0.00     0.302 C 
BRANCH  11  12
HETATM   12  N           1     170.655 189.515 276.958  0.00  0.00     0.093 N 
HETATM   13  C           1     170.293 189.142 275.579  0.00  0.00     0.302 C 
HETATM   14  C           1     171.004 190.005 274.515  0.00  0.00     0.302 C 
HETATM   15  N           1     170.783 191.449 274.704  0.00  0.00     0.087 N 
HETATM   16  C           1     171.685 192.131 273.815  0.00  0.00     0.310 C 
HETATM   17  C           1     171.145 191.823 276.083  0.00  0.00     0.302 C 
HETATM   18  C           1     170.435 190.960 277.148  0.00  0.00     0.302 C 
ENDBRANCH  11  12
ENDBRANCH  10  11
ENDBRANCH   8  10
ENDBRANCH   7   8
ENDBRANCH   5   7
BRANCH   4  19
HETATM   19  S           1     173.410 187.044 276.378  0.00  0.00    -0.105 SA
BRANCH  19  20
HETATM   20  C           1     174.215 185.484 275.917  0.00  0.00     0.119 C 
BRANCH  20  21
HETATM   21  C           1     175.628 185.755 275.502  0.00  0.00    -0.049 A 
HETATM   22  C           1     176.668 185.583 276.416  0.00  0.00     0.008 A 
HETATM   23  C           1     177.984 185.836 276.029  0.00  0.00     0.001 A 
HETATM   24  C           1     178.260 186.259 274.730  0.00  0.00     0.000 A 
HETATM   25  C           1     177.221 186.430 273.816  0.00  0.00     0.001 A 
HETATM   26  C           1     175.904 186.177 274.202  0.00  0.00     0.008 A 
ENDBRANCH  20  21
ENDBRANCH  19  20
ENDBRANCH   4  19
BRANCH   2  27
HETATM   27  C           1     173.722 185.973 282.151  0.00  0.00    -0.024 A 
HETATM   28  C           1     174.836 185.304 282.660  0.00  0.00     0.014 A 
HETATM   29  C           1     174.937 185.061 284.030  0.00  0.00     0.030 A 
HETATM   30  C           1     173.925 185.486 284.890  0.00  0.00     0.029 A 
HETATM   31  C           1     172.811 186.154 284.380  0.00  0.00     0.030 A 
HETATM   32  C           1     172.710 186.397 283.011  0.00  0.00     0.014 A 
BRANCH  30  33
HETATM   33  N           1     174.016 185.266 286.133  0.00  0.00    -0.390 N 
HETATM   34  C           1     172.804 185.022 286.928  0.00  0.00     0.149 C 
HETATM   35  C           1     175.335 185.256 286.782  0.00  0.00     0.149 C 
ENDBRANCH  30  33
ENDBRANCH   2  27
TORSDOF 10
ENDMDL
MODEL 4
REMARK VINA RESULT:      -7.7      2.416      8.238
REMARK  10 active torsions:
REMARK  status: ('A' for Active; 'I' for Inactive)
REMARK    1  A    between atoms: C_2  and  C_17 
REMARK    2  A    between atoms: C_4  and  S_8 
REMARK    3  A    between atoms: C_5  and  C_7 
REMARK    4  A    between atoms: C_7  and  N_16 
REMARK    5  A    between atoms: S_8  and  C_9 
REMARK    6  A    between atoms: C_9  and  C_10 
REMARK    7  A    between atoms: N_16  and  C_18 
REMARK    8  A    between atoms: C_18  and  C_19 
REMARK    9  A    between atoms: C_19  and  N_20 
REMARK   10  A    between atoms: C_29  and  N_32 
ROOT
HETATM    1  C           1     173.525 189.114 283.660  0.00  0.00     0.130 A 
HETATM    2  C           1     172.896 189.538 282.501  0.00  0.00    -0.008 A 
HETATM    3  N           1     174.424 188.107 283.702  0.00  0.00    -0.253 NA
HETATM    4  C           1     174.707 187.498 282.530  0.00  0.00     0.101 A 
HETATM    5  C           1     174.130 187.851 281.319  0.00  0.00     0.006 A 
HETATM    6  C           1     173.208 188.892 281.308  0.00  0.00     0.025 A 
ENDROOT
BRANCH   5   7
HETATM    7  C           1     174.492 187.131 280.057  0.00  0.00     0.311 C 
BRANCH   7   8
HETATM    8  N           1     173.321 186.499 279.514  0.00  0.00     0.089 N 
HETATM    9  H           1     173.153 185.618 280.002  0.00  0.00     0.316 HD
BRANCH   8  10
HETATM   10  C           1     173.572 186.235 278.123  0.00  0.00     0.300 C 
BRANCH  10  11
HETATM   11  C           1     174.894 186.871 277.715  0.00  0.00     0.302 C 
BRANCH  11  12
HETATM   12  N           1     174.987 186.908 276.281  0.00  0.00     0.093 N 
HETATM   13  C           1     176.421 186.899 275.942  0.00  0.00     0.302 C 
HETATM   14  C           1     176.684 186.678 274.437  0.00  0.00     0.302 C 
HETATM   15  N           1     176.051 185.454 273.916  0.00  0.00     0.087 N 
HETATM   16  C           1     176.163 185.502 272.483  0.00  0.00     0.310 C 
HETATM   17  C           1     174.617 185.463 274.254  0.00  0.00     0.302 C 
HETATM   18  C           1     174.353 185.684 275.759  0.00  0.00     0.302 C 
ENDBRANCH  11  12
ENDBRANCH  10  11
ENDBRANCH   8  10
ENDBRANCH   7   8
ENDBRANCH   5   7
BRANCH   4  19
HETATM   19  S           1     175.910 186.140 282.539  0.00  0.00    -0.105 SA
BRANCH  19  20
HETATM   20  C           1     174.643 184.850 282.692  0.00  0.00     0.119 C 
BRANCH  20  21
HETATM   21  C           1     174.087 184.858 284.083  0.00  0.00    -0.049 A 
HETATM   22  C           1     174.935 184.656 285.172  0.00  0.00     0.008 A 
HETATM   23  C           1     174.417 184.665 286.468  0.00  0.00     0.001 A 
HETATM   24  C           1     173.054 184.876 286.673  0.00  0.00     0.000 A 
HETATM   25  C           1     172.208 185.079 285.584  0.00  0.00     0.001 A 
HETATM   26  C           1     172.724 185.071 284.288  0.00  0.00     0.008 A 
ENDBRANCH  20  21
ENDBRANCH  19  20
ENDBRANCH   4  19
BRANCH   2  27
HETATM   27  C           1     172.014 190.542 282.526  0.00  0.00    -0.024 A 
HETATM   28  C           1     170.808 190.394 283.212  0.00  0.00     0.014 A 
HETATM   29  C           1     169.887 191.441 283.238  0.00  0.00     0.030 A 
HETATM   30  C           1     170.171 192.636 282.577  0.00  0.00     0.029 A 
HETATM   31  C           1     171.377 192.784 281.891  0.00  0.00     0.030 A 
HETATM   32  C           1     172.298 191.737 281.865  0.00  0.00     0.014 A 
BRANCH  30  33
HETATM   33  N           1     169.336 193.587 282.600  0.00  0.00    -0.390 N 
HETATM   34  C           1     168.889 194.142 283.885  0.00  0.00     0.149 C 
HETATM   35  C           1     168.811 194.134 281.340  0.00  0.00     0.149 C 
ENDBRANCH  30  33
ENDBRANCH   2  27
TORSDOF 10
ENDMDL
MODEL 5
REMARK VINA RESULT:      -7.4      7.866     13.474
REMARK  10 active torsions:
REMARK  status: ('A' for Active; 'I' for Inactive)
REMARK    1  A    between atoms: C_2  and  C_17 
REMARK    2  A    between atoms: C_4  and  S_8 
REMARK    3  A    between atoms: C_5  and  C_7 
REMARK    4  A    between atoms: C_7  and  N_16 
REMARK    5  A    between atoms: S_8  and  C_9 
REMARK    6  A    between atoms: C_9  and  C_10 
REMARK    7  A    between atoms: N_16  and  C_18 
REMARK    8  A    between atoms: C_18  and  C_19 
REMARK    9  A    between atoms: C_19  and  N_20 
REMARK   10  A    between atoms: C_29  and  N_32 
ROOT
HETATM    1  C           1     176.359 184.108 268.433  0.00  0.00     0.130 A 
HETATM    2  C           1     176.049 184.709 267.223  0.00  0.00    -0.008 A 
HETATM    3  N           1     176.040 184.631 269.637  0.00  0.00    -0.253 NA
HETATM    4  C           1     175.380 185.810 269.628  0.00  0.00     0.101 A 
HETATM    5  C           1     175.027 186.487 268.471  0.00  0.00     0.006 A 
HETATM    6  C           1     175.369 185.923 267.247  0.00  0.00     0.025 A 
ENDROOT
BRANCH   5   7
HETATM    7  C           1     174.295 187.792 268.538  0.00  0.00     0.311 C 
BRANCH   7   8
HETATM    8  N           1     174.896 188.726 267.625  0.00  0.00     0.089 N 
HETATM    9  H           1     175.895 188.533 267.550  0.00  0.00     0.316 HD
BRANCH   8  10
HETATM   10  C           1     174.703 190.047 268.160  0.00  0.00     0.300 C 
BRANCH  10  11
HETATM   11  C           1     175.139 190.073 269.619  0.00  0.00     0.302 C 
BRANCH  11  12
HETATM   12  N           1     174.340 191.025 270.342  0.00  0.00     0.093 N 
HETATM   13  C           1     173.752 190.310 271.489  0.00  0.00     0.302 C 
HETATM   14  C           1     173.074 191.254 272.504  0.00  0.00     0.302 C 
HETATM   15  N           1     173.974 192.312 272.996  0.00  0.00     0.087 N 
HETATM   16  C           1     173.161 193.248 273.726  0.00  0.00     0.310 C 
HETATM   17  C           1     174.562 193.027 271.850  0.00  0.00     0.302 C 
HETATM   18  C           1     175.240 192.083 270.834  0.00  0.00     0.302 C 
ENDBRANCH  11  12
ENDBRANCH  10  11
ENDBRANCH   8  10
ENDBRANCH   7   8
ENDBRANCH   5   7
BRANCH   4  19
HETATM   19  S           1     174.931 186.551 271.223  0.00  0.00    -0.105 SA
BRANCH  19  20
HETATM   20  C           1     175.213 185.020 272.157  0.00  0.00     0.119 C 
BRANCH  20  21
HETATM   21  C           1     175.863 185.346 273.466  0.00  0.00    -0.049 A 
HETATM   22  C           1     177.034 186.103 273.492  0.00  0.00     0.008 A 
HETATM   23  C           1     177.640 186.408 274.712  0.00  0.00     0.001 A 
HETATM   24  C           1     177.073 185.956 275.903  0.00  0.00     0.000 A 
HETATM   25  C           1     175.902 185.200 275.876  0.00  0.00     0.001 A 
HETATM   26  C           1     175.296 184.895 274.657  0.00  0.00     0.008 A 
ENDBRANCH  20  21
ENDBRANCH  19  20
ENDBRANCH   4  19
BRANCH   2  27
HETATM   27  C           1     176.393 184.139 266.065  0.00  0.00    -0.024 A 
HETATM   28  C           1     177.143 182.962 266.062  0.00  0.00     0.014 A 
HETATM   29  C           1     177.504 182.367 264.854  0.00  0.00     0.030 A 
HETATM   30  C           1     177.114 182.948 263.647  0.00  0.00     0.029 A 
HETATM   31  C           1     176.364 184.125 263.650  0.00  0.00     0.030 A 
HETATM   32  C           1     176.004 184.720 264.858  0.00  0.00     0.014 A 
BRANCH  30  33
HETATM   33  N           1     177.441 182.409 262.550  0.00  0.00    -0.390 N 
HETATM   34  C           1     176.601 181.350 261.972  0.00  0.00     0.149 C 
HETATM   35  C           1     178.662 182.840 261.854  0.00  0.00     0.149 C 
ENDBRANCH  30  33
ENDBRANCH   2  27
TORSDOF 10
ENDMDL
MODEL 6
REMARK VINA RESULT:      -7.3      6.915     10.445
REMARK  10 active torsions:
REMARK  status: ('A' for Active; 'I' for Inactive)
REMARK    1  A    between atoms: C_2  and  C_17 
REMARK    2  A    between atoms: C_4  and  S_8 
REMARK    3  A    between atoms: C_5  and  C_7 
REMARK    4  A    between atoms: C_7  and  N_16 
REMARK    5  A    between atoms: S_8  and  C_9 
REMARK    6  A    between atoms: C_9  and  C_10 
REMARK    7  A    between atoms: N_16  and  C_18 
REMARK    8  A    between atoms: C_18  and  C_19 
REMARK    9  A    between atoms: C_19  and  N_20 
REMARK   10  A    between atoms: C_29  and  N_32 
ROOT
HETATM    1  C           1     175.973 183.801 271.040  0.00  0.00     0.130 A 
HETATM    2  C           1     175.648 185.057 271.525  0.00  0.00    -0.008 A 
HETATM    3  N           1     175.802 183.424 269.754  0.00  0.00    -0.253 NA
HETATM    4  C           1     175.283 184.348 268.916  0.00  0.00     0.101 A 
HETATM    5  C           1     174.928 185.630 269.307  0.00  0.00     0.006 A 
HETATM    6  C           1     175.115 185.988 270.638  0.00  0.00     0.025 A 
ENDROOT
BRANCH   5   7
HETATM    7  C           1     174.357 186.602 268.322  0.00  0.00     0.311 C 
BRANCH   7   8
HETATM    8  N           1     175.336 187.613 268.026  0.00  0.00     0.089 N 
HETATM    9  H           1     176.153 187.481 268.622  0.00  0.00     0.316 HD
BRANCH   8  10
HETATM   10  C           1     174.742 188.892 268.305  0.00  0.00     0.300 C 
BRANCH  10  11
HETATM   11  C           1     175.446 189.532 269.493  0.00  0.00     0.302 C 
BRANCH  11  12
HETATM   12  N           1     174.651 190.620 269.994  0.00  0.00     0.093 N 
HETATM   13  C           1     173.795 190.072 271.061  0.00  0.00     0.302 C 
HETATM   14  C           1     173.067 191.165 271.871  0.00  0.00     0.302 C 
HETATM   15  N           1     173.985 192.163 272.446  0.00  0.00     0.087 N 
HETATM   16  C           1     173.174 193.237 272.952  0.00  0.00     0.310 C 
HETATM   17  C           1     174.842 192.712 271.380  0.00  0.00     0.302 C 
HETATM   18  C           1     175.570 191.619 270.569  0.00  0.00     0.302 C 
ENDBRANCH  11  12
ENDBRANCH  10  11
ENDBRANCH   8  10
ENDBRANCH   7   8
ENDBRANCH   5   7
BRANCH   4  19
HETATM   19  S           1     175.037 183.885 267.179  0.00  0.00    -0.105 SA
BRANCH  19  20
HETATM   20  C           1     176.805 183.964 266.776  0.00  0.00     0.119 C 
BRANCH  20  21
HETATM   21  C           1     177.019 183.482 265.374  0.00  0.00    -0.049 A 
HETATM   22  C           1     176.498 184.207 264.302  0.00  0.00     0.008 A 
HETATM   23  C           1     176.697 183.759 262.996  0.00  0.00     0.001 A 
HETATM   24  C           1     177.417 182.587 262.763  0.00  0.00     0.000 A 
HETATM   25  C           1     177.938 181.864 263.835  0.00  0.00     0.001 A 
HETATM   26  C           1     177.739 182.312 265.141  0.00  0.00     0.008 A 
ENDBRANCH  20  21
ENDBRANCH  19  20
ENDBRANCH   4  19
BRANCH   2  27
HETATM   27  C           1     175.842 185.369 272.811  0.00  0.00    -0.024 A 
HETATM   28  C           1     176.946 186.136 273.183  0.00  0.00     0.014 A 
HETATM   29  C           1     177.149 186.460 274.524  0.00  0.00     0.030 A 
HETATM   30  C           1     176.249 186.018 275.493  0.00  0.00     0.029 A 
HETATM   31  C           1     175.145 185.251 275.120  0.00  0.00     0.030 A 
HETATM   32  C           1     174.942 184.927 273.779  0.00  0.00     0.014 A 
BRANCH  30  33
HETATM   33  N           1     176.433 186.312 276.710  0.00  0.00    -0.390 N 
HETATM   34  C           1     175.304 186.762 277.537  0.00  0.00     0.149 C 
HETATM   35  C           1     177.777 186.205 277.297  0.00  0.00     0.149 C 
ENDBRANCH  30  33
ENDBRANCH   2  27
TORSDOF 10
ENDMDL
MODEL 7
REMARK VINA RESULT:      -7.1      1.804      6.480
REMARK  10 active torsions:
REMARK  status: ('A' for Active; 'I' for Inactive)
REMARK    1  A    between atoms: C_2  and  C_17 
REMARK    2  A    between atoms: C_4  and  S_8 
REMARK    3  A    between atoms: C_5  and  C_7 
REMARK    4  A    between atoms: C_7  and  N_16 
REMARK    5  A    between atoms: S_8  and  C_9 
REMARK    6  A    between atoms: C_9  and  C_10 
REMARK    7  A    between atoms: N_16  and  C_18 
REMARK    8  A    between atoms: C_18  and  C_19 
REMARK    9  A    between atoms: C_19  and  N_20 
REMARK   10  A    between atoms: C_29  and  N_32 
ROOT
HETATM    1  C           1     170.837 189.105 279.853  0.00  0.00     0.130 A 
HETATM    2  C           1     171.386 189.504 281.062  0.00  0.00    -0.008 A 
HETATM    3  N           1     171.223 188.000 279.179  0.00  0.00    -0.253 NA
HETATM    4  C           1     172.203 187.260 279.742  0.00  0.00     0.101 A 
HETATM    5  C           1     172.813 187.576 280.946  0.00  0.00     0.006 A 
HETATM    6  C           1     172.394 188.720 281.616  0.00  0.00     0.025 A 
ENDROOT
BRANCH   5   7
HETATM    7  C           1     173.895 186.707 281.510  0.00  0.00     0.311 C 
BRANCH   7   8
HETATM    8  N           1     174.754 187.497 282.350  0.00  0.00     0.089 N 
HETATM    9  H           1     175.482 187.930 281.780  0.00  0.00     0.316 HD
BRANCH   8  10
HETATM   10  C           1     175.359 186.614 283.310  0.00  0.00     0.300 C 
BRANCH  10  11
HETATM   11  C           1     174.615 185.286 283.318  0.00  0.00     0.302 C 
BRANCH  11  12
HETATM   12  N           1     174.262 184.941 284.669  0.00  0.00     0.093 N 
HETATM   13  C           1     175.323 185.474 285.541  0.00  0.00     0.302 C 
HETATM   14  C           1     174.961 185.408 287.040  0.00  0.00     0.302 C 
HETATM   15  N           1     173.688 186.079 287.354  0.00  0.00     0.087 N 
HETATM   16  C           1     173.355 185.733 288.710  0.00  0.00     0.310 C 
HETATM   17  C           1     172.626 185.546 286.482  0.00  0.00     0.302 C 
HETATM   18  C           1     172.987 185.611 284.983  0.00  0.00     0.302 C 
ENDBRANCH  11  12
ENDBRANCH  10  11
ENDBRANCH   8  10
ENDBRANCH   7   8
ENDBRANCH   5   7
BRANCH   4  19
HETATM   19  S           1     172.754 185.766 278.871  0.00  0.00    -0.105 SA
BRANCH  19  20
HETATM   20  C           1     173.013 186.627 277.294  0.00  0.00     0.119 C 
BRANCH  20  21
HETATM   21  C           1     174.339 186.232 276.721  0.00  0.00    -0.049 A 
HETATM   22  C           1     175.513 186.765 277.253  0.00  0.00     0.008 A 
HETATM   23  C           1     176.749 186.397 276.719  0.00  0.00     0.001 A 
HETATM   24  C           1     176.809 185.497 275.656  0.00  0.00     0.000 A 
HETATM   25  C           1     175.635 184.964 275.126  0.00  0.00     0.001 A 
HETATM   26  C           1     174.399 185.331 275.659  0.00  0.00     0.008 A 
ENDBRANCH  20  21
ENDBRANCH  19  20
ENDBRANCH   4  19
BRANCH   2  27
HETATM   27  C           1     170.959 190.609 281.679  0.00  0.00    -0.024 A 
HETATM   28  C           1     171.866 191.613 282.020  0.00  0.00     0.014 A 
HETATM   29  C           1     171.421 192.766 282.665  0.00  0.00     0.030 A 
HETATM   30  C           1     170.069 192.916 282.971  0.00  0.00     0.029 A 
HETATM   31  C           1     169.161 191.913 282.630  0.00  0.00     0.030 A 
HETATM   32  C           1     169.606 190.760 281.985  0.00  0.00     0.014 A 
BRANCH  30  33
HETATM   33  N           1     169.665 193.963 283.556  0.00  0.00    -0.390 N 
HETATM   34  C           1     168.822 194.929 282.837  0.00  0.00     0.149 C 
HETATM   35  C           1     170.040 194.213 284.956  0.00  0.00     0.149 C 
ENDBRANCH  30  33
ENDBRANCH   2  27
TORSDOF 10
ENDMDL
MODEL 8
REMARK VINA RESULT:      -7.0      2.958      8.655
REMARK  10 active torsions:
REMARK  status: ('A' for Active; 'I' for Inactive)
REMARK    1  A    between atoms: C_2  and  C_17 
REMARK    2  A    between atoms: C_4  and  S_8 
REMARK    3  A    between atoms: C_5  and  C_7 
REMARK    4  A    between atoms: C_7  and  N_16 
REMARK    5  A    between atoms: S_8  and  C_9 
REMARK    6  A    between atoms: C_9  and  C_10 
REMARK    7  A    between atoms: N_16  and  C_18 
REMARK    8  A    between atoms: C_18  and  C_19 
REMARK    9  A    between atoms: C_19  and  N_20 
REMARK   10  A    between atoms: C_29  and  N_32 
ROOT
HETATM    1  C           1     175.150 186.740 276.797  0.00  0.00     0.130 A 
HETATM    2  C           1     174.288 186.043 275.965  0.00  0.00    -0.008 A 
HETATM    3  N           1     174.852 187.087 278.068  0.00  0.00    -0.253 NA
HETATM    4  C           1     173.636 186.719 278.526  0.00  0.00     0.101 A 
HETATM    5  C           1     172.706 186.021 277.771  0.00  0.00     0.006 A 
HETATM    6  C           1     173.042 185.678 276.466  0.00  0.00     0.025 A 
ENDROOT
BRANCH   5   7
HETATM    7  C           1     171.375 185.646 278.347  0.00  0.00     0.311 C 
BRANCH   7   8
HETATM    8  N           1     170.335 186.007 277.422  0.00  0.00     0.089 N 
HETATM    9  H           1     170.649 185.824 276.469  0.00  0.00     0.316 HD
BRANCH   8  10
HETATM   10  C           1     170.078 187.413 277.580  0.00  0.00     0.300 C 
BRANCH  10  11
HETATM   11  C           1     169.685 188.012 276.237  0.00  0.00     0.302 C 
BRANCH  11  12
HETATM   12  N           1     170.729 187.770 275.279  0.00  0.00     0.093 N 
HETATM   13  C           1     170.104 187.801 273.945  0.00  0.00     0.302 C 
HETATM   14  C           1     171.135 187.812 272.796  0.00  0.00     0.302 C 
HETATM   15  N           1     172.108 188.913 272.906  0.00  0.00     0.087 N 
HETATM   16  C           1     173.138 188.662 271.935  0.00  0.00     0.310 C 
HETATM   17  C           1     172.733 188.882 274.241  0.00  0.00     0.302 C 
HETATM   18  C           1     171.702 188.871 275.390  0.00  0.00     0.302 C 
ENDBRANCH  11  12
ENDBRANCH  10  11
ENDBRANCH   8  10
ENDBRANCH   7   8
ENDBRANCH   5   7
BRANCH   4  19
HETATM   19  S           1     173.193 187.164 280.229  0.00  0.00    -0.105 SA
BRANCH  19  20
HETATM   20  C           1     174.685 186.419 280.946  0.00  0.00     0.119 C 
BRANCH  20  21
HETATM   21  C           1     174.392 185.961 282.342  0.00  0.00    -0.049 A 
HETATM   22  C           1     175.437 185.563 283.176  0.00  0.00     0.008 A 
HETATM   23  C           1     175.165 185.136 284.477  0.00  0.00     0.001 A 
HETATM   24  C           1     173.850 185.110 284.941  0.00  0.00     0.000 A 
HETATM   25  C           1     172.807 185.510 284.107  0.00  0.00     0.001 A 
HETATM   26  C           1     173.078 185.936 282.806  0.00  0.00     0.008 A 
ENDBRANCH  20  21
ENDBRANCH  19  20
ENDBRANCH   4  19
BRANCH   2  27
HETATM   27  C           1     174.643 185.729 274.715  0.00  0.00    -0.024 A 
HETATM   28  C           1     173.680 185.288 273.807  0.00  0.00     0.014 A 
HETATM   29  C           1     174.050 184.959 272.503  0.00  0.00     0.030 A 
HETATM   30  C           1     175.383 185.072 272.107  0.00  0.00     0.029 A 
HETATM   31  C           1     176.345 185.513 273.015  0.00  0.00     0.030 A 
HETATM   32  C           1     175.975 185.842 274.319  0.00  0.00     0.014 A 
BRANCH  30  33
HETATM   33  N           1     175.719 184.774 270.924  0.00  0.00    -0.390 N 
HETATM   34  C           1     176.380 183.490 270.648  0.00  0.00     0.149 C 
HETATM   35  C           1     175.450 185.713 269.825  0.00  0.00     0.149 C 
ENDBRANCH  30  33
ENDBRANCH   2  27
TORSDOF 10
ENDMDL
MODEL 9
REMARK VINA RESULT:      -6.9      2.867      5.275
REMARK  10 active torsions:
REMARK  status: ('A' for Active; 'I' for Inactive)
REMARK    1  A    between atoms: C_2  and  C_17 
REMARK    2  A    between atoms: C_4  and  S_8 
REMARK    3  A    between atoms: C_5  and  C_7 
REMARK    4  A    between atoms: C_7  and  N_16 
REMARK    5  A    between atoms: S_8  and  C_9 
REMARK    6  A    between atoms: C_9  and  C_10 
REMARK    7  A    between atoms: N_16  and  C_18 
REMARK    8  A    between atoms: C_18  and  C_19 
REMARK    9  A    between atoms: C_19  and  N_20 
REMARK   10  A    between atoms: C_29  and  N_32 
ROOT
HETATM    1  C           1     174.270 185.965 285.258  0.00  0.00     0.130 A 
HETATM    2  C           1     173.466 186.938 285.830  0.00  0.00    -0.008 A 
HETATM    3  N           1     174.643 185.966 283.960  0.00  0.00    -0.253 NA
HETATM    4  C           1     174.193 186.988 283.201  0.00  0.00     0.101 A 
HETATM    5  C           1     173.385 188.008 283.682  0.00  0.00     0.006 A 
HETATM    6  C           1     173.017 187.979 285.022  0.00  0.00     0.025 A 
ENDROOT
BRANCH   5   7
HETATM    7  C           1     172.923 189.111 282.780  0.00  0.00     0.311 C 
BRANCH   7   8
HETATM    8  N           1     171.637 189.581 283.219  0.00  0.00     0.089 N 
HETATM    9  H           1     170.906 188.982 282.833  0.00  0.00     0.316 HD
BRANCH   8  10
HETATM   10  C           1     171.469 190.920 282.726  0.00  0.00     0.300 C 
BRANCH  10  11
HETATM   11  C           1     170.036 191.111 282.248  0.00  0.00     0.302 C 
BRANCH  11  12
HETATM   12  N           1     169.404 192.142 283.026  0.00  0.00     0.093 N 
HETATM   13  C           1     168.648 191.471 284.098  0.00  0.00     0.302 C 
HETATM   14  C           1     168.122 192.450 285.169  0.00  0.00     0.302 C 
HETATM   15  N           1     169.186 193.277 285.764  0.00  0.00     0.087 N 
HETATM   16  C           1     168.537 194.295 286.546  0.00  0.00     0.310 C 
HETATM   17  C           1     169.941 193.949 284.692  0.00  0.00     0.302 C 
HETATM   18  C           1     170.468 192.971 283.621  0.00  0.00     0.302 C 
ENDBRANCH  11  12
ENDBRANCH  10  11
ENDBRANCH   8  10
ENDBRANCH   7   8
ENDBRANCH   5   7
BRANCH   4  19
HETATM   19  S           1     174.671 187.030 281.451  0.00  0.00    -0.105 SA
BRANCH  19  20
HETATM   20  C           1     173.233 186.065 280.904  0.00  0.00     0.119 C 
BRANCH  20  21
HETATM   21  C           1     173.171 186.065 279.408  0.00  0.00    -0.049 A 
HETATM   22  C           1     172.110 185.438 278.756  0.00  0.00     0.008 A 
HETATM   23  C           1     172.052 185.438 277.361  0.00  0.00     0.001 A 
HETATM   24  C           1     173.055 186.064 276.622  0.00  0.00     0.000 A 
HETATM   25  C           1     174.115 186.691 277.275  0.00  0.00     0.001 A 
HETATM   26  C           1     174.173 186.692 278.669  0.00  0.00     0.008 A 
ENDBRANCH  20  21
ENDBRANCH  19  20
ENDBRANCH   4  19
BRANCH   2  27
HETATM   27  C           1     173.131 186.880 287.123  0.00  0.00    -0.024 A 
HETATM   28  C           1     173.865 186.079 287.998  0.00  0.00     0.014 A 
HETATM   29  C           1     173.515 186.018 289.346  0.00  0.00     0.030 A 
HETATM   30  C           1     172.432 186.757 289.820  0.00  0.00     0.029 A 
HETATM   31  C           1     171.698 187.558 288.945  0.00  0.00     0.030 A 
HETATM   32  C           1     172.048 187.620 287.597  0.00  0.00     0.014 A 
BRANCH  30  33
HETATM   33  N           1     172.114 186.702 291.045  0.00  0.00    -0.390 N 
HETATM   34  C           1     171.527 187.876 291.705  0.00  0.00     0.149 C 
HETATM   35  C           1     172.335 185.463 291.805  0.00  0.00     0.149 C 
ENDBRANCH  30  33
ENDBRANCH   2  27
TORSDOF 10
ENDMDL
