MODEL 1
REMARK VINA RESULT:      -8.7      0.000      0.000
REMARK  11 active torsions:
REMARK  status: ('A' for Active; 'I' for Inactive)
REMARK    1  A    between atoms: C_1  and  C_19 
REMARK    2  A    between atoms: C_5  and  S_32 
REMARK    3  A    between atoms: C_6  and  C_8 
REMARK    4  A    between atoms: C_8  and  N_9 
REMARK    5  A    between atoms: N_9  and  C_10 
REMARK    6  A    between atoms: C_10  and  C_11 
REMARK    7  A    between atoms: C_11  and  C_12 
REMARK    8  A    between atoms: N_15  and  C_18 
REMARK    9  A    between atoms: C_22  and  N_25 
REMARK   10  A    between atoms: S_32  and  C_39 
REMARK   11  A    between atoms: C_33  and  C_39 
ROOT
HETATM    1  C           1     171.179 189.109 280.334  0.00  0.00    -0.010 A 
HETATM    2  C           1     170.546 188.778 279.148  0.00  0.00     0.101 A 
HETATM    3  N           1     170.828 187.669 278.430  0.00  0.00    -0.359 N 
ATOM      4  HN          1     170.343 187.457 277.558  1.00  0.00     0.166 HD
HETATM    5  C           1     171.787 186.856 278.924  0.00  0.00     0.077 A 
HETATM    6  C           1     172.475 187.102 280.101  0.00  0.00     0.004 A 
HETATM    7  C           1     172.163 188.253 280.818  0.00  0.00     0.025 A 
ENDROOT
BRANCH   6   8
HETATM    8  C           1     173.527 186.156 280.588  0.00  0.00     0.311 C 
BRANCH   8   9
HETATM    9  N           1     174.667 186.901 281.050  0.00  0.00     0.087 N 
HETATM   10  H           1     175.447 186.761 280.409  0.00  0.00     0.316 HD
BRANCH   9  11
HETATM   11  C           1     175.019 186.399 282.352  0.00  0.00     0.270 C 
BRANCH  11  12
HETATM   12  C           1     174.388 185.028 282.556  0.00  0.00     0.034 C 
BRANCH  12  13
HETATM   13  C           1     173.742 184.965 283.934  0.00  0.00    -0.010 C 
HETATM   14  C           1     174.829 184.790 284.988  0.00  0.00     0.035 C 
HETATM   15  C           1     174.259 184.915 286.399  0.00  0.00     0.273 C 
HETATM   16  N           1     173.550 186.183 286.579  0.00  0.00     0.093 N 
HETATM   17  C           1     172.454 186.325 285.619  0.00  0.00     0.273 C 
HETATM   18  C           1     172.960 186.251 284.180  0.00  0.00     0.035 C 
BRANCH  16  19
HETATM   19  C           1     172.972 186.132 287.896  0.00  0.00     0.223 C 
HETATM   20  C           1     173.966 185.574 288.903  0.00  0.00     0.036 C 
HETATM   21  C           1     173.598 186.217 290.240  0.00  0.00     0.002 C 
HETATM   22  C           1     172.591 187.321 289.921  0.00  0.00     0.002 C 
HETATM   23  C           1     172.690 187.529 288.419  0.00  0.00     0.036 C 
ENDBRANCH  16  19
ENDBRANCH  12  13
ENDBRANCH  11  12
ENDBRANCH   9  11
ENDBRANCH   8   9
ENDBRANCH   6   8
BRANCH   5  24
HETATM   24  S           1     172.198 185.354 277.992  0.00  0.00    -0.107 SA
BRANCH  24  25
HETATM   25  C           1     172.710 186.263 276.506  0.00  0.00     0.119 C 
BRANCH  25  26
HETATM   26  C           1     174.169 186.037 276.261  0.00  0.00    -0.049 A 
HETATM   27  C           1     175.116 186.643 277.087  0.00  0.00     0.008 A 
HETATM   28  C           1     176.476 186.434 276.859  0.00  0.00     0.001 A 
HETATM   29  C           1     176.889 185.619 275.805  0.00  0.00     0.000 A 
HETATM   30  C           1     175.942 185.014 274.979  0.00  0.00     0.001 A 
HETATM   31  C           1     174.583 185.223 275.207  0.00  0.00     0.008 A 
ENDBRANCH  25  26
ENDBRANCH  24  25
ENDBRANCH   5  24
BRANCH   1  32
HETATM   32  C           1     170.853 190.224 280.999  0.00  0.00    -0.025 A 
HETATM   33  C           1     171.854 191.026 281.546  0.00  0.00     0.014 A 
HETATM   34  C           1     171.513 192.189 282.239  0.00  0.00     0.030 A 
HETATM   35  C           1     170.173 192.548 282.384  0.00  0.00     0.029 A 
HETATM   36  C           1     169.174 191.745 281.835  0.00  0.00     0.030 A 
HETATM   37  C           1     169.513 190.583 281.143  0.00  0.00     0.014 A 
BRANCH  35  38
HETATM   38  N           1     169.865 193.602 283.012  0.00  0.00    -0.390 N 
HETATM   39  C           1     169.050 194.636 282.358  0.00  0.00     0.149 C 
HETATM   40  C           1     170.322 193.793 284.396  0.00  0.00     0.149 C 
ENDBRANCH  35  38
ENDBRANCH   1  32
TORSDOF 11
ENDMDL
MODEL 2
REMARK VINA RESULT:      -8.5      2.323      9.147
REMARK  11 active torsions:
REMARK  status: ('A' for Active; 'I' for Inactive)
REMARK    1  A    between atoms: C_1  and  C_19 
REMARK    2  A    between atoms: C_5  and  S_32 
REMARK    3  A    between atoms: C_6  and  C_8 
REMARK    4  A    between atoms: C_8  and  N_9 
REMARK    5  A    between atoms: N_9  and  C_10 
REMARK    6  A    between atoms: C_10  and  C_11 
REMARK    7  A    between atoms: C_11  and  C_12 
REMARK    8  A    between atoms: N_15  and  C_18 
REMARK    9  A    between atoms: C_22  and  N_25 
REMARK   10  A    between atoms: S_32  and  C_39 
REMARK   11  A    between atoms: C_33  and  C_39 
ROOT
HETATM    1  C           1     172.699 189.515 281.953  0.00  0.00    -0.010 A 
HETATM    2  C           1     173.414 189.334 283.126  0.00  0.00     0.101 A 
HETATM    3  N           1     174.271 188.311 283.333  0.00  0.00    -0.359 N 
ATOM      4  HN          1     174.781 188.208 284.211  1.00  0.00     0.166 HD
HETATM    5  C           1     174.420 187.431 282.319  0.00  0.00     0.077 A 
HETATM    6  C           1     173.750 187.528 281.110  0.00  0.00     0.004 A 
HETATM    7  C           1     172.873 188.592 280.926  0.00  0.00     0.025 A 
ENDROOT
BRANCH   6   8
HETATM    8  C           1     173.964 186.514 280.030  0.00  0.00     0.311 C 
BRANCH   8   9
HETATM    9  N           1     172.770 185.730 279.864  0.00  0.00     0.087 N 
HETATM   10  H           1     172.914 184.804 280.264  0.00  0.00     0.316 HD
BRANCH   9  11
HETATM   11  C           1     172.520 185.609 278.452  0.00  0.00     0.270 C 
BRANCH  11  12
HETATM   12  C           1     173.661 186.252 277.677  0.00  0.00     0.034 C 
BRANCH  12  13
HETATM   13  C           1     173.735 185.644 276.282  0.00  0.00    -0.010 C 
HETATM   14  C           1     173.099 186.604 275.283  0.00  0.00     0.035 C 
HETATM   15  C           1     173.318 186.135 273.846  0.00  0.00     0.273 C 
HETATM   16  N           1     174.740 185.939 273.557  0.00  0.00     0.093 N 
HETATM   17  C           1     175.341 184.960 274.465  0.00  0.00     0.273 C 
HETATM   18  C           1     175.195 185.387 275.924  0.00  0.00     0.035 C 
BRANCH  16  19
HETATM   19  C           1     174.804 185.398 272.227  0.00  0.00     0.223 C 
HETATM   20  C           1     176.247 185.157 271.808  0.00  0.00     0.036 C 
HETATM   21  C           1     176.197 183.990 270.823  0.00  0.00     0.002 C 
HETATM   22  C           1     174.782 183.418 270.907  0.00  0.00     0.002 C 
HETATM   23  C           1     174.188 184.012 272.174  0.00  0.00     0.036 C 
ENDBRANCH  16  19
ENDBRANCH  12  13
ENDBRANCH  11  12
ENDBRANCH   9  11
ENDBRANCH   8   9
ENDBRANCH   6   8
BRANCH   5  24
HETATM   24  S           1     175.563 186.042 282.553  0.00  0.00    -0.107 SA
BRANCH  24  25
HETATM   25  C           1     174.240 184.842 282.880  0.00  0.00     0.119 C 
BRANCH  25  26
HETATM   26  C           1     173.853 184.907 284.325  0.00  0.00    -0.049 A 
HETATM   27  C           1     172.538 185.206 284.681  0.00  0.00     0.008 A 
HETATM   28  C           1     172.177 185.268 286.026  0.00  0.00     0.001 A 
HETATM   29  C           1     173.130 185.029 287.016  0.00  0.00     0.000 A 
HETATM   30  C           1     174.445 184.730 286.660  0.00  0.00     0.001 A 
HETATM   31  C           1     174.806 184.669 285.315  0.00  0.00     0.008 A 
ENDBRANCH  25  26
ENDBRANCH  24  25
ENDBRANCH   5  24
BRANCH   1  32
HETATM   32  C           1     171.864 190.550 281.811  0.00  0.00    -0.025 A 
HETATM   33  C           1     171.148 190.709 280.624  0.00  0.00     0.014 A 
HETATM   34  C           1     170.277 191.789 280.476  0.00  0.00     0.030 A 
HETATM   35  C           1     170.123 192.709 281.513  0.00  0.00     0.029 A 
HETATM   36  C           1     170.840 192.549 282.698  0.00  0.00     0.030 A 
HETATM   37  C           1     171.711 191.470 282.848  0.00  0.00     0.014 A 
BRANCH  35  38
HETATM   38  N           1     169.333 193.689 281.378  0.00  0.00    -0.390 N 
HETATM   39  C           1     169.016 194.542 282.532  0.00  0.00     0.149 C 
HETATM   40  C           1     168.733 193.973 280.066  0.00  0.00     0.149 C 
ENDBRANCH  35  38
ENDBRANCH   1  32
TORSDOF 11
ENDMDL
MODEL 3
REMARK VINA RESULT:      -8.5      7.873     12.926
REMARK  11 active torsions:
REMARK  status: ('A' for Active; 'I' for Inactive)
REMARK    1  A    between atoms: C_1  and  C_19 
REMARK    2  A    between atoms: C_5  and  S_32 
REMARK    3  A    between atoms: C_6  and  C_8 
REMARK    4  A    between atoms: C_8  and  N_9 
REMARK    5  A    between atoms: N_9  and  C_10 
REMARK    6  A    between atoms: C_10  and  C_11 
REMARK    7  A    between atoms: C_11  and  C_12 
REMARK    8  A    between atoms: N_15  and  C_18 
REMARK    9  A    between atoms: C_22  and  N_25 
REMARK   10  A    between atoms: S_32  and  C_39 
REMARK   11  A    between atoms: C_33  and  C_39 
ROOT
HETATM    1  C           1     175.346 184.803 271.392  0.00  0.00    -0.010 A 
HETATM    2  C           1     176.357 184.598 270.468  0.00  0.00     0.101 A 
HETATM    3  N           1     176.141 184.241 269.183  0.00  0.00    -0.359 N 
ATOM      4  HN          1     176.911 184.097 268.530  1.00  0.00     0.166 HD
HETATM    5  C           1     174.853 184.082 268.809  0.00  0.00     0.077 A 
HETATM    6  C           1     173.774 184.264 269.659  0.00  0.00     0.004 A 
HETATM    7  C           1     174.029 184.632 270.976  0.00  0.00     0.025 A 
ENDROOT
BRANCH   6   8
HETATM    8  C           1     172.372 184.070 269.173  0.00  0.00     0.311 C 
BRANCH   8   9
HETATM    9  N           1     171.675 185.327 269.202  0.00  0.00     0.087 N 
HETATM   10  H           1     172.276 186.039 269.616  0.00  0.00     0.316 HD
BRANCH   9  11
HETATM   11  C           1     170.500 185.158 270.015  0.00  0.00     0.270 C 
BRANCH  11  12
HETATM   12  C           1     170.257 186.424 270.825  0.00  0.00     0.034 C 
BRANCH  12  13
HETATM   13  C           1     171.512 187.286 270.812  0.00  0.00    -0.010 C 
HETATM   14  C           1     171.129 188.724 270.479  0.00  0.00     0.035 C 
HETATM   15  C           1     172.319 189.667 270.642  0.00  0.00     0.273 C 
HETATM   16  N           1     172.896 189.573 271.984  0.00  0.00     0.093 N 
HETATM   17  C           1     173.338 188.210 272.283  0.00  0.00     0.273 C 
HETATM   18  C           1     172.184 187.214 272.179  0.00  0.00     0.035 C 
BRANCH  16  19
HETATM   19  C           1     174.061 190.417 271.975  0.00  0.00     0.223 C 
HETATM   20  C           1     175.139 189.846 271.066  0.00  0.00     0.036 C 
HETATM   21  C           1     175.926 191.052 270.557  0.00  0.00     0.002 C 
HETATM   22  C           1     175.124 192.289 270.961  0.00  0.00     0.002 C 
HETATM   23  C           1     173.751 191.764 271.348  0.00  0.00     0.036 C 
ENDBRANCH  16  19
ENDBRANCH  12  13
ENDBRANCH  11  12
ENDBRANCH   9  11
ENDBRANCH   8   9
ENDBRANCH   6   8
BRANCH   5  24
HETATM   24  S           1     174.515 183.602 267.091  0.00  0.00    -0.107 SA
BRANCH  24  25
HETATM   25  C           1     175.154 185.154 266.398  0.00  0.00     0.119 C 
BRANCH  25  26
HETATM   26  C           1     174.136 186.236 266.575  0.00  0.00    -0.049 A 
HETATM   27  C           1     174.421 187.335 267.386  0.00  0.00     0.008 A 
HETATM   28  C           1     173.472 188.344 267.552  0.00  0.00     0.001 A 
HETATM   29  C           1     172.239 188.255 266.907  0.00  0.00     0.000 A 
HETATM   30  C           1     171.954 187.156 266.097  0.00  0.00     0.001 A 
HETATM   31  C           1     172.902 186.148 265.931  0.00  0.00     0.008 A 
ENDBRANCH  25  26
ENDBRANCH  24  25
ENDBRANCH   5  24
BRANCH   1  32
HETATM   32  C           1     175.627 185.157 272.651  0.00  0.00    -0.025 A 
HETATM   33  C           1     174.749 184.822 273.681  0.00  0.00     0.014 A 
HETATM   34  C           1     175.042 185.192 274.994  0.00  0.00     0.030 A 
HETATM   35  C           1     176.213 185.895 275.276  0.00  0.00     0.029 A 
HETATM   36  C           1     177.091 186.228 274.245  0.00  0.00     0.030 A 
HETATM   37  C           1     176.798 185.860 272.932  0.00  0.00     0.014 A 
BRANCH  35  38
HETATM   38  N           1     176.479 186.230 276.468  0.00  0.00    -0.390 N 
HETATM   39  C           1     177.839 186.051 276.995  0.00  0.00     0.149 C 
HETATM   40  C           1     175.428 186.797 277.323  0.00  0.00     0.149 C 
ENDBRANCH  35  38
ENDBRANCH   1  32
TORSDOF 11
ENDMDL
MODEL 4
REMARK VINA RESULT:      -8.5      2.111      7.370
REMARK  11 active torsions:
REMARK  status: ('A' for Active; 'I' for Inactive)
REMARK    1  A    between atoms: C_1  and  C_19 
REMARK    2  A    between atoms: C_5  and  S_32 
REMARK    3  A    between atoms: C_6  and  C_8 
REMARK    4  A    between atoms: C_8  and  N_9 
REMARK    5  A    between atoms: N_9  and  C_10 
REMARK    6  A    between atoms: C_10  and  C_11 
REMARK    7  A    between atoms: C_11  and  C_12 
REMARK    8  A    between atoms: N_15  and  C_18 
REMARK    9  A    between atoms: C_22  and  N_25 
REMARK   10  A    between atoms: S_32  and  C_39 
REMARK   11  A    between atoms: C_33  and  C_39 
ROOT
HETATM    1  C           1     173.881 186.815 278.619  0.00  0.00    -0.010 A 
HETATM    2  C           1     172.568 187.182 278.859  0.00  0.00     0.101 A 
HETATM    3  N           1     172.092 187.523 280.077  0.00  0.00    -0.359 N 
ATOM      4  HN          1     171.117 187.787 280.217  1.00  0.00     0.166 HD
HETATM    5  C           1     172.974 187.495 281.099  0.00  0.00     0.077 A 
HETATM    6  C           1     174.306 187.141 280.960  0.00  0.00     0.004 A 
HETATM    7  C           1     174.766 186.795 279.693  0.00  0.00     0.025 A 
ENDROOT
BRANCH   6   8
HETATM    8  C           1     175.227 187.132 282.140  0.00  0.00     0.311 C 
BRANCH   8   9
HETATM    9  N           1     175.288 185.805 282.690  0.00  0.00     0.087 N 
HETATM   10  H           1     174.411 185.320 282.507  0.00  0.00     0.316 HD
BRANCH   9  11
HETATM   11  C           1     175.481 185.930 284.111  0.00  0.00     0.270 C 
BRANCH  11  12
HETATM   12  C           1     174.574 184.943 284.835  0.00  0.00     0.034 C 
BRANCH  12  13
HETATM   13  C           1     173.820 185.666 285.943  0.00  0.00    -0.010 C 
HETATM   14  C           1     172.445 185.029 286.110  0.00  0.00     0.035 C 
HETATM   15  C           1     171.722 185.585 287.335  0.00  0.00     0.273 C 
HETATM   16  N           1     172.525 185.429 288.549  0.00  0.00     0.093 N 
HETATM   17  C           1     173.819 186.103 288.425  0.00  0.00     0.273 C 
HETATM   18  C           1     174.618 185.566 287.239  0.00  0.00     0.035 C 
BRANCH  16  19
HETATM   19  C           1     171.791 186.082 289.599  0.00  0.00     0.223 C 
HETATM   20  C           1     172.382 185.751 290.961  0.00  0.00     0.036 C 
HETATM   21  C           1     172.080 186.962 291.843  0.00  0.00     0.002 C 
HETATM   22  C           1     171.570 188.057 290.907  0.00  0.00     0.002 C 
HETATM   23  C           1     171.940 187.590 289.508  0.00  0.00     0.036 C 
ENDBRANCH  16  19
ENDBRANCH  12  13
ENDBRANCH  11  12
ENDBRANCH   9  11
ENDBRANCH   8   9
ENDBRANCH   6   8
BRANCH   5  24
HETATM   24  S           1     172.379 187.946 282.754  0.00  0.00    -0.107 SA
BRANCH  24  25
HETATM   25  C           1     172.631 189.726 282.499  0.00  0.00     0.119 C 
BRANCH  25  26
HETATM   26  C           1     171.458 190.479 283.042  0.00  0.00    -0.049 A 
HETATM   27  C           1     170.400 189.789 283.634  0.00  0.00     0.008 A 
HETATM   28  C           1     169.305 190.490 284.140  0.00  0.00     0.001 A 
HETATM   29  C           1     169.270 191.882 284.056  0.00  0.00     0.000 A 
HETATM   30  C           1     170.328 192.572 283.465  0.00  0.00     0.001 A 
HETATM   31  C           1     171.422 191.871 282.959  0.00  0.00     0.008 A 
ENDBRANCH  25  26
ENDBRANCH  24  25
ENDBRANCH   5  24
BRANCH   1  32
HETATM   32  C           1     174.290 186.489 277.388  0.00  0.00    -0.025 A 
HETATM   33  C           1     173.457 185.743 276.553  0.00  0.00     0.014 A 
HETATM   34  C           1     173.883 185.402 275.269  0.00  0.00     0.030 A 
HETATM   35  C           1     175.140 185.808 274.820  0.00  0.00     0.029 A 
HETATM   36  C           1     175.971 186.554 275.655  0.00  0.00     0.030 A 
HETATM   37  C           1     175.546 186.894 276.940  0.00  0.00     0.014 A 
BRANCH  35  38
HETATM   38  N           1     175.526 185.498 273.655  0.00  0.00    -0.390 N 
HETATM   39  C           1     176.821 185.984 273.157  0.00  0.00     0.149 C 
HETATM   40  C           1     174.679 184.654 272.801  0.00  0.00     0.149 C 
ENDBRANCH  35  38
ENDBRANCH   1  32
TORSDOF 11
ENDMDL
MODEL 5
REMARK VINA RESULT:      -8.4      7.704     13.518
REMARK  11 active torsions:
REMARK  status: ('A' for Active; 'I' for Inactive)
REMARK    1  A    between atoms: C_1  and  C_19 
REMARK    2  A    between atoms: C_5  and  S_32 
REMARK    3  A    between atoms: C_6  and  C_8 
REMARK    4  A    between atoms: C_8  and  N_9 
REMARK    5  A    between atoms: N_9  and  C_10 
REMARK    6  A    between atoms: C_10  and  C_11 
REMARK    7  A    between atoms: C_11  and  C_12 
REMARK    8  A    between atoms: N_15  and  C_18 
REMARK    9  A    between atoms: C_22  and  N_25 
REMARK   10  A    between atoms: S_32  and  C_39 
REMARK   11  A    between atoms: C_33  and  C_39 
ROOT
HETATM    1  C           1     175.610 184.844 271.487  0.00  0.00    -0.010 A 
HETATM    2  C           1     175.725 183.515 271.114  0.00  0.00     0.101 A 
HETATM    3  N           1     175.540 183.070 269.852  0.00  0.00    -0.359 N 
ATOM      4  HN          1     175.631 182.082 269.613  1.00  0.00     0.166 HD
HETATM    5  C           1     175.226 183.999 268.923  0.00  0.00     0.077 A 
HETATM    6  C           1     175.089 185.350 269.198  0.00  0.00     0.004 A 
HETATM    7  C           1     175.285 185.778 270.507  0.00  0.00     0.025 A 
ENDROOT
BRANCH   6   8
HETATM    8  C           1     174.738 186.323 268.117  0.00  0.00     0.311 C 
BRANCH   8   9
HETATM    9  N           1     173.407 186.821 268.332  0.00  0.00     0.087 N 
HETATM   10  H           1     172.732 186.172 267.929  0.00  0.00     0.316 HD
BRANCH   9  11
HETATM   11  C           1     173.304 188.093 267.669  0.00  0.00     0.270 C 
BRANCH  11  12
HETATM   12  C           1     174.656 188.793 267.699  0.00  0.00     0.034 C 
BRANCH  12  13
HETATM   13  C           1     174.581 190.006 268.617  0.00  0.00    -0.010 C 
HETATM   14  C           1     173.119 190.376 268.839  0.00  0.00     0.035 C 
HETATM   15  C           1     172.977 191.462 269.903  0.00  0.00     0.273 C 
HETATM   16  N           1     173.617 191.068 271.159  0.00  0.00     0.093 N 
HETATM   17  C           1     175.041 190.785 270.969  0.00  0.00     0.273 C 
HETATM   18  C           1     175.257 189.674 269.943  0.00  0.00     0.035 C 
BRANCH  16  19
HETATM   19  C           1     173.511 192.205 272.033  0.00  0.00     0.223 C 
HETATM   20  C           1     173.539 191.773 273.491  0.00  0.00     0.036 C 
HETATM   21  C           1     174.148 192.949 274.254  0.00  0.00     0.002 C 
HETATM   22  C           1     174.700 193.905 273.198  0.00  0.00     0.002 C 
HETATM   23  C           1     174.731 193.100 271.909  0.00  0.00     0.036 C 
ENDBRANCH  16  19
ENDBRANCH  12  13
ENDBRANCH  11  12
ENDBRANCH   9  11
ENDBRANCH   8   9
ENDBRANCH   6   8
BRANCH   5  24
HETATM   24  S           1     174.969 183.445 267.213  0.00  0.00    -0.107 SA
BRANCH  24  25
HETATM   25  C           1     176.735 183.158 266.906  0.00  0.00     0.119 C 
BRANCH  25  26
HETATM   26  C           1     176.990 183.148 265.431  0.00  0.00    -0.049 A 
HETATM   27  C           1     176.444 184.146 264.623  0.00  0.00     0.008 A 
HETATM   28  C           1     176.681 184.136 263.248  0.00  0.00     0.001 A 
HETATM   29  C           1     177.463 183.131 262.682  0.00  0.00     0.000 A 
HETATM   30  C           1     178.009 182.133 263.490  0.00  0.00     0.001 A 
HETATM   31  C           1     177.772 182.142 264.864  0.00  0.00     0.008 A 
ENDBRANCH  25  26
ENDBRANCH  24  25
ENDBRANCH   5  24
BRANCH   1  32
HETATM   32  C           1     175.806 185.220 272.755  0.00  0.00    -0.025 A 
HETATM   33  C           1     176.912 186.004 273.086  0.00  0.00     0.014 A 
HETATM   34  C           1     177.117 186.396 274.409  0.00  0.00     0.030 A 
HETATM   35  C           1     176.216 186.006 275.400  0.00  0.00     0.029 A 
HETATM   36  C           1     175.111 185.223 275.068  0.00  0.00     0.030 A 
HETATM   37  C           1     174.905 184.830 273.746  0.00  0.00     0.014 A 
BRANCH  35  38
HETATM   38  N           1     176.402 186.362 276.600  0.00  0.00    -0.390 N 
HETATM   39  C           1     177.745 186.280 277.192  0.00  0.00     0.149 C 
HETATM   40  C           1     175.275 186.858 277.403  0.00  0.00     0.149 C 
ENDBRANCH  35  38
ENDBRANCH   1  32
TORSDOF 11
ENDMDL
MODEL 6
REMARK VINA RESULT:      -8.4      4.340     11.138
REMARK  11 active torsions:
REMARK  status: ('A' for Active; 'I' for Inactive)
REMARK    1  A    between atoms: C_1  and  C_19 
REMARK    2  A    between atoms: C_5  and  S_32 
REMARK    3  A    between atoms: C_6  and  C_8 
REMARK    4  A    between atoms: C_8  and  N_9 
REMARK    5  A    between atoms: N_9  and  C_10 
REMARK    6  A    between atoms: C_10  and  C_11 
REMARK    7  A    between atoms: C_11  and  C_12 
REMARK    8  A    between atoms: N_15  and  C_18 
REMARK    9  A    between atoms: C_22  and  N_25 
REMARK   10  A    between atoms: S_32  and  C_39 
REMARK   11  A    between atoms: C_33  and  C_39 
ROOT
HETATM    1  C           1     174.528 186.029 276.104  0.00  0.00    -0.010 A 
HETATM    2  C           1     175.508 186.653 276.858  0.00  0.00     0.101 A 
HETATM    3  N           1     175.351 187.004 278.153  0.00  0.00    -0.359 N 
ATOM      4  HN          1     176.094 187.464 278.678  1.00  0.00     0.166 HD
HETATM    5  C           1     174.158 186.715 278.717  0.00  0.00     0.077 A 
HETATM    6  C           1     173.117 186.094 278.046  0.00  0.00     0.004 A 
HETATM    7  C           1     173.309 185.745 276.713  0.00  0.00     0.025 A 
ENDROOT
BRANCH   6   8
HETATM    8  C           1     171.821 185.806 278.736  0.00  0.00     0.311 C 
BRANCH   8   9
HETATM    9  N           1     170.783 185.634 277.756  0.00  0.00     0.087 N 
HETATM   10  H           1     171.201 185.421 276.852  0.00  0.00     0.316 HD
BRANCH   9  11
HETATM   11  C           1     170.056 186.873 277.669  0.00  0.00     0.270 C 
BRANCH  11  12
HETATM   12  C           1     169.533 187.056 276.250  0.00  0.00     0.034 C 
BRANCH  12  13
HETATM   13  C           1     170.702 187.306 275.306  0.00  0.00    -0.010 C 
HETATM   14  C           1     170.183 187.380 273.874  0.00  0.00     0.035 C 
HETATM   15  C           1     171.280 187.821 272.908  0.00  0.00     0.273 C 
HETATM   16  N           1     171.875 189.094 273.319  0.00  0.00     0.093 N 
HETATM   17  C           1     172.445 189.009 274.665  0.00  0.00     0.273 C 
HETATM   18  C           1     171.390 188.611 275.694  0.00  0.00     0.035 C 
BRANCH  16  19
HETATM   19  C           1     172.955 189.342 272.402  0.00  0.00     0.223 C 
HETATM   20  C           1     174.301 189.125 273.077  0.00  0.00     0.036 C 
HETATM   21  C           1     175.251 188.688 271.964  0.00  0.00     0.002 C 
HETATM   22  C           1     174.379 188.404 270.742  0.00  0.00     0.002 C 
HETATM   23  C           1     172.958 188.322 271.279  0.00  0.00     0.036 C 
ENDBRANCH  16  19
ENDBRANCH  12  13
ENDBRANCH  11  12
ENDBRANCH   9  11
ENDBRANCH   8   9
ENDBRANCH   6   8
BRANCH   5  24
HETATM   24  S           1     173.903 187.169 280.456  0.00  0.00    -0.107 SA
BRANCH  24  25
HETATM   25  C           1     173.861 185.448 281.032  0.00  0.00     0.119 C 
BRANCH  25  26
HETATM   26  C           1     173.885 185.421 282.528  0.00  0.00    -0.049 A 
HETATM   27  C           1     172.689 185.473 283.245  0.00  0.00     0.008 A 
HETATM   28  C           1     172.711 185.448 284.639  0.00  0.00     0.001 A 
HETATM   29  C           1     173.927 185.371 285.316  0.00  0.00     0.000 A 
HETATM   30  C           1     175.123 185.320 284.599  0.00  0.00     0.001 A 
HETATM   31  C           1     175.101 185.344 283.206  0.00  0.00     0.008 A 
ENDBRANCH  25  26
ENDBRANCH  24  25
ENDBRANCH   5  24
BRANCH   1  32
HETATM   32  C           1     174.747 185.706 274.825  0.00  0.00    -0.025 A 
HETATM   33  C           1     176.042 185.750 274.308  0.00  0.00     0.014 A 
HETATM   34  C           1     176.271 185.414 272.972  0.00  0.00     0.030 A 
HETATM   35  C           1     175.205 185.035 272.156  0.00  0.00     0.029 A 
HETATM   36  C           1     173.911 184.991 272.674  0.00  0.00     0.030 A 
HETATM   37  C           1     173.682 185.327 274.009  0.00  0.00     0.014 A 
BRANCH  35  38
HETATM   38  N           1     175.413 184.730 270.945  0.00  0.00    -0.390 N 
HETATM   39  C           1     176.754 184.312 270.512  0.00  0.00     0.149 C 
HETATM   40  C           1     174.313 184.794 269.973  0.00  0.00     0.149 C 
ENDBRANCH  35  38
ENDBRANCH   1  32
TORSDOF 11
ENDMDL
MODEL 7
REMARK VINA RESULT:      -8.4      3.606      9.378
REMARK  11 active torsions:
REMARK  status: ('A' for Active; 'I' for Inactive)
REMARK    1  A    between atoms: C_1  and  C_19 
REMARK    2  A    between atoms: C_5  and  S_32 
REMARK    3  A    between atoms: C_6  and  C_8 
REMARK    4  A    between atoms: C_8  and  N_9 
REMARK    5  A    between atoms: N_9  and  C_10 
REMARK    6  A    between atoms: C_10  and  C_11 
REMARK    7  A    between atoms: C_11  and  C_12 
REMARK    8  A    between atoms: N_15  and  C_18 
REMARK    9  A    between atoms: C_22  and  N_25 
REMARK   10  A    between atoms: S_32  and  C_39 
REMARK   11  A    between atoms: C_33  and  C_39 
ROOT
HETATM    1  C           1     173.792 186.259 280.916  0.00  0.00    -0.010 A 
HETATM    2  C           1     174.880 186.889 280.337  0.00  0.00     0.101 A 
HETATM    3  N           1     174.971 187.174 279.019  0.00  0.00    -0.359 N 
ATOM      4  HN          1     175.789 187.639 278.626  1.00  0.00     0.166 HD
HETATM    5  C           1     173.922 186.810 278.249  0.00  0.00     0.077 A 
HETATM    6  C           1     172.791 186.176 278.735  0.00  0.00     0.004 A 
HETATM    7  C           1     172.727 185.896 280.096  0.00  0.00     0.025 A 
ENDROOT
BRANCH   6   8
HETATM    8  C           1     171.667 185.802 277.821  0.00  0.00     0.311 C 
BRANCH   8   9
HETATM    9  N           1     170.454 186.429 278.269  0.00  0.00     0.087 N 
HETATM   10  H           1     169.669 185.796 278.122  0.00  0.00     0.316 HD
BRANCH   9  11
HETATM   11  C           1     170.262 187.621 277.485  0.00  0.00     0.270 C 
BRANCH  11  12
HETATM   12  C           1     169.432 187.289 276.252  0.00  0.00     0.034 C 
BRANCH  12  13
HETATM   13  C           1     170.085 187.903 275.020  0.00  0.00    -0.010 C 
HETATM   14  C           1     171.124 188.927 275.462  0.00  0.00     0.035 C 
HETATM   15  C           1     171.944 189.432 274.277  0.00  0.00     0.273 C 
HETATM   16  N           1     172.571 188.326 273.550  0.00  0.00     0.093 N 
HETATM   17  C           1     171.572 187.377 273.056  0.00  0.00     0.273 C 
HETATM   18  C           1     170.739 186.798 274.197  0.00  0.00     0.035 C 
BRANCH  16  19
HETATM   19  C           1     173.215 188.916 272.408  0.00  0.00     0.223 C 
HETATM   20  C           1     174.711 189.063 272.644  0.00  0.00     0.036 C 
HETATM   21  C           1     175.354 188.969 271.261  0.00  0.00     0.002 C 
HETATM   22  C           1     174.255 188.504 270.307  0.00  0.00     0.002 C 
HETATM   23  C           1     173.139 187.994 271.205  0.00  0.00     0.036 C 
ENDBRANCH  16  19
ENDBRANCH  12  13
ENDBRANCH  11  12
ENDBRANCH   9  11
ENDBRANCH   8   9
ENDBRANCH   6   8
BRANCH   5  24
HETATM   24  S           1     174.001 187.174 276.472  0.00  0.00    -0.107 SA
BRANCH  24  25
HETATM   25  C           1     175.438 186.101 276.186  0.00  0.00     0.119 C 
BRANCH  25  26
HETATM   26  C           1     175.550 185.796 274.725  0.00  0.00    -0.049 A 
HETATM   27  C           1     176.745 186.047 274.051  0.00  0.00     0.008 A 
HETATM   28  C           1     176.850 185.763 272.689  0.00  0.00     0.001 A 
HETATM   29  C           1     175.760 185.228 272.003  0.00  0.00     0.000 A 
HETATM   30  C           1     174.565 184.977 272.677  0.00  0.00     0.001 A 
HETATM   31  C           1     174.461 185.261 274.038  0.00  0.00     0.008 A 
ENDBRANCH  25  26
ENDBRANCH  24  25
ENDBRANCH   5  24
BRANCH   1  32
HETATM   32  C           1     173.764 186.005 282.229  0.00  0.00    -0.025 A 
HETATM   33  C           1     172.727 186.510 283.014  0.00  0.00     0.014 A 
HETATM   34  C           1     172.698 186.246 284.384  0.00  0.00     0.030 A 
HETATM   35  C           1     173.705 185.477 284.967  0.00  0.00     0.029 A 
HETATM   36  C           1     174.740 184.972 284.182  0.00  0.00     0.030 A 
HETATM   37  C           1     174.770 185.236 282.812  0.00  0.00     0.014 A 
BRANCH  35  38
HETATM   38  N           1     173.678 185.237 286.210  0.00  0.00    -0.390 N 
HETATM   39  C           1     172.403 184.923 286.871  0.00  0.00     0.149 C 
HETATM   40  C           1     174.922 185.273 286.992  0.00  0.00     0.149 C 
ENDBRANCH  35  38
ENDBRANCH   1  32
TORSDOF 11
ENDMDL
MODEL 8
REMARK VINA RESULT:      -8.3      1.898      7.431
REMARK  11 active torsions:
REMARK  status: ('A' for Active; 'I' for Inactive)
REMARK    1  A    between atoms: C_1  and  C_19 
REMARK    2  A    between atoms: C_5  and  S_32 
REMARK    3  A    between atoms: C_6  and  C_8 
REMARK    4  A    between atoms: C_8  and  N_9 
REMARK    5  A    between atoms: N_9  and  C_10 
REMARK    6  A    between atoms: C_10  and  C_11 
REMARK    7  A    between atoms: C_11  and  C_12 
REMARK    8  A    between atoms: N_15  and  C_18 
REMARK    9  A    between atoms: C_22  and  N_25 
REMARK   10  A    between atoms: S_32  and  C_39 
REMARK   11  A    between atoms: C_33  and  C_39 
ROOT
HETATM    1  C           1     172.793 186.501 283.699  0.00  0.00    -0.010 A 
HETATM    2  C           1     173.081 185.441 282.855  0.00  0.00     0.101 A 
HETATM    3  N           1     173.046 185.522 281.507  0.00  0.00    -0.359 N 
ATOM      4  HN          1     173.263 184.720 280.916  1.00  0.00     0.166 HD
HETATM    5  C           1     172.710 186.721 280.982  0.00  0.00     0.077 A 
HETATM    6  C           1     172.406 187.838 281.743  0.00  0.00     0.004 A 
HETATM    7  C           1     172.449 187.723 283.128  0.00  0.00     0.025 A 
ENDROOT
BRANCH   6   8
HETATM    8  C           1     172.041 189.135 281.091  0.00  0.00     0.311 C 
BRANCH   8   9
HETATM    9  N           1     171.337 189.964 282.031  0.00  0.00     0.087 N 
HETATM   10  H           1     170.356 190.027 281.762  0.00  0.00     0.316 HD
BRANCH   9  11
HETATM   11  C           1     171.932 191.274 281.989  0.00  0.00     0.270 C 
BRANCH  11  12
HETATM   12  C           1     170.933 192.266 281.409  0.00  0.00     0.034 C 
BRANCH  12  13
HETATM   13  C           1     170.054 192.815 282.525  0.00  0.00    -0.010 C 
HETATM   14  C           1     170.932 193.200 283.710  0.00  0.00     0.035 C 
HETATM   15  C           1     170.128 193.935 284.781  0.00  0.00     0.273 C 
HETATM   16  N           1     169.446 195.106 284.229  0.00  0.00     0.093 N 
HETATM   17  C           1     168.541 194.734 283.139  0.00  0.00     0.273 C 
HETATM   18  C           1     169.288 194.029 282.009  0.00  0.00     0.035 C 
BRANCH  16  19
HETATM   19  C           1     168.645 195.640 285.297  0.00  0.00     0.223 C 
HETATM   20  C           1     169.050 195.037 286.633  0.00  0.00     0.036 C 
HETATM   21  C           1     168.737 196.107 287.678  0.00  0.00     0.002 C 
HETATM   22  C           1     168.419 197.384 286.901  0.00  0.00     0.002 C 
HETATM   23  C           1     168.913 197.123 285.487  0.00  0.00     0.036 C 
ENDBRANCH  16  19
ENDBRANCH  12  13
ENDBRANCH  11  12
ENDBRANCH   9  11
ENDBRANCH   8   9
ENDBRANCH   6   8
BRANCH   5  24
HETATM   24  S           1     172.652 186.876 279.175  0.00  0.00    -0.107 SA
BRANCH  24  25
HETATM   25  C           1     174.454 187.014 279.001  0.00  0.00     0.119 C 
BRANCH  25  26
HETATM   26  C           1     174.877 186.423 277.692  0.00  0.00    -0.049 A 
HETATM   27  C           1     173.924 185.862 276.842  0.00  0.00     0.008 A 
HETATM   28  C           1     174.317 185.311 275.622  0.00  0.00     0.001 A 
HETATM   29  C           1     175.662 185.323 275.253  0.00  0.00     0.000 A 
HETATM   30  C           1     176.614 185.884 276.103  0.00  0.00     0.001 A 
HETATM   31  C           1     176.221 186.434 277.323  0.00  0.00     0.008 A 
ENDBRANCH  25  26
ENDBRANCH  24  25
ENDBRANCH   5  24
BRANCH   1  32
HETATM   32  C           1     172.845 186.355 285.027  0.00  0.00    -0.025 A 
HETATM   33  C           1     172.987 187.476 285.846  0.00  0.00     0.014 A 
HETATM   34  C           1     173.041 187.323 287.232  0.00  0.00     0.030 A 
HETATM   35  C           1     172.954 186.052 287.798  0.00  0.00     0.029 A 
HETATM   36  C           1     172.812 184.932 286.979  0.00  0.00     0.030 A 
HETATM   37  C           1     172.758 185.084 285.593  0.00  0.00     0.014 A 
BRANCH  35  38
HETATM   38  N           1     173.003 185.914 289.056  0.00  0.00    -0.390 N 
HETATM   39  C           1     171.764 185.723 289.823  0.00  0.00     0.149 C 
HETATM   40  C           1     174.299 185.945 289.748  0.00  0.00     0.149 C 
ENDBRANCH  35  38
ENDBRANCH   1  32
TORSDOF 11
ENDMDL
MODEL 9
REMARK VINA RESULT:      -8.3      1.752      6.768
REMARK  11 active torsions:
REMARK  status: ('A' for Active; 'I' for Inactive)
REMARK    1  A    between atoms: C_1  and  C_19 
REMARK    2  A    between atoms: C_5  and  S_32 
REMARK    3  A    between atoms: C_6  and  C_8 
REMARK    4  A    between atoms: C_8  and  N_9 
REMARK    5  A    between atoms: N_9  and  C_10 
REMARK    6  A    between atoms: C_10  and  C_11 
REMARK    7  A    between atoms: C_11  and  C_12 
REMARK    8  A    between atoms: N_15  and  C_18 
REMARK    9  A    between atoms: C_22  and  N_25 
REMARK   10  A    between atoms: S_32  and  C_39 
REMARK   11  A    between atoms: C_33  and  C_39 
ROOT
HETATM    1  C           1     173.458 186.370 280.721  0.00  0.00    -0.010 A 
HETATM    2  C           1     174.499 186.969 280.032  0.00  0.00     0.101 A 
HETATM    3  N           1     174.514 187.138 278.692  0.00  0.00    -0.359 N 
ATOM      4  HN          1     175.300 187.583 278.217  1.00  0.00     0.166 HD
HETATM    5  C           1     173.437 186.688 278.013  0.00  0.00     0.077 A 
HETATM    6  C           1     172.348 186.077 278.613  0.00  0.00     0.004 A 
HETATM    7  C           1     172.361 185.916 279.995  0.00  0.00     0.025 A 
ENDROOT
BRANCH   6   8
HETATM    8  C           1     171.187 185.602 277.796  0.00  0.00     0.311 C 
BRANCH   8   9
HETATM    9  N           1     170.041 186.427 278.064  0.00  0.00     0.087 N 
HETATM   10  H           1     169.301 185.858 278.474  0.00  0.00     0.316 HD
BRANCH   9  11
HETATM   11  C           1     169.590 186.970 276.810  0.00  0.00     0.270 C 
BRANCH  11  12
HETATM   12  C           1     168.729 188.199 277.069  0.00  0.00     0.034 C 
BRANCH  12  13
HETATM   13  C           1     169.226 188.914 278.318  0.00  0.00    -0.010 C 
HETATM   14  C           1     170.066 190.118 277.904  0.00  0.00     0.035 C 
HETATM   15  C           1     170.428 190.983 279.110  0.00  0.00     0.273 C 
HETATM   16  N           1     169.234 191.401 279.847  0.00  0.00     0.093 N 
HETATM   17  C           1     168.462 190.248 280.314  0.00  0.00     0.273 C 
HETATM   18  C           1     168.029 189.358 279.151  0.00  0.00     0.035 C 
BRANCH  16  19
HETATM   19  C           1     169.710 192.107 281.006  0.00  0.00     0.223 C 
HETATM   20  C           1     169.231 191.436 282.284  0.00  0.00     0.036 C 
HETATM   21  C           1     170.301 191.742 283.332  0.00  0.00     0.002 C 
HETATM   22  C           1     171.485 192.341 282.574  0.00  0.00     0.002 C 
HETATM   23  C           1     171.222 192.022 281.110  0.00  0.00     0.036 C 
ENDBRANCH  16  19
ENDBRANCH  12  13
ENDBRANCH  11  12
ENDBRANCH   9  11
ENDBRANCH   8   9
ENDBRANCH   6   8
BRANCH   5  24
HETATM   24  S           1     173.414 186.896 276.210  0.00  0.00    -0.107 SA
BRANCH  24  25
HETATM   25  C           1     174.322 185.356 275.894  0.00  0.00     0.119 C 
BRANCH  25  26
HETATM   26  C           1     175.727 185.678 275.491  0.00  0.00    -0.049 A 
HETATM   27  C           1     176.764 185.544 276.414  0.00  0.00     0.008 A 
HETATM   28  C           1     178.074 185.845 276.039  0.00  0.00     0.001 A 
HETATM   29  C           1     178.346 186.278 274.742  0.00  0.00     0.000 A 
HETATM   30  C           1     177.309 186.412 273.819  0.00  0.00     0.001 A 
HETATM   31  C           1     176.000 186.112 274.194  0.00  0.00     0.008 A 
ENDBRANCH  25  26
ENDBRANCH  24  25
ENDBRANCH   5  24
BRANCH   1  32
HETATM   32  C           1     173.504 186.233 282.051  0.00  0.00    -0.025 A 
HETATM   33  C           1     174.403 185.336 282.628  0.00  0.00     0.014 A 
HETATM   34  C           1     174.451 185.192 284.015  0.00  0.00     0.030 A 
HETATM   35  C           1     173.601 185.945 284.824  0.00  0.00     0.029 A 
HETATM   36  C           1     172.702 186.841 284.247  0.00  0.00     0.030 A 
HETATM   37  C           1     172.653 186.985 282.860  0.00  0.00     0.014 A 
BRANCH  35  38
HETATM   38  N           1     173.644 185.814 286.082  0.00  0.00    -0.390 N 
HETATM   39  C           1     174.181 184.581 286.675  0.00  0.00     0.149 C 
HETATM   40  C           1     173.158 186.896 286.950  0.00  0.00     0.149 C 
ENDBRANCH  35  38
ENDBRANCH   1  32
TORSDOF 11
ENDMDL
