MODEL 1
REMARK VINA RESULT:      -7.5      0.000      0.000
REMARK  8 active torsions:
REMARK  status: ('A' for Active; 'I' for Inactive)
REMARK    1  A    between atoms: N2_7  and  C6_8 
REMARK    2  A    between atoms: C6_8  and  C7_9 
REMARK    3  A    between atoms: C7_9  and  N3_10 
REMARK    4  A    between atoms: N3_10  and  C8_11 
REMARK    5  A    between atoms: C8_11  and  C9_12 
REMARK    6  A    between atoms: C17_22  and  S1_23 
REMARK    7  A    between atoms: S1_23  and  C18_24 
REMARK    8  A    between atoms: C18_24  and  C19_25 
ROOT
HETATM    1  C9  UNL     1     171.718 187.543 289.896  1.00  0.00     0.006 A 
HETATM    2  C10 UNL     1     171.630 187.398 291.290  1.00  0.00     0.025 A 
HETATM    3  C11 UNL     1     170.381 187.364 291.921  1.00  0.00    -0.005 A 
HETATM    4  C12 UNL     1     170.271 187.217 293.312  1.00  0.00     0.032 A 
HETATM    5  C13 UNL     1     169.008 187.181 293.914  1.00  0.00     0.011 A 
HETATM    6 BR1  UNL     1     168.859 186.984 295.808  1.00  0.00    -0.051 Br
HETATM    7  C14 UNL     1     167.854 187.290 293.130  1.00  0.00     0.021 A 
HETATM    8  C15 UNL     1     167.957 187.435 291.743  1.00  0.00     0.034 A 
HETATM    9  C16 UNL     1     169.216 187.473 291.135  1.00  0.00     0.068 A 
HETATM   10  N4  UNL     1     169.320 187.620 289.789  1.00  0.00    -0.241 NA
HETATM   11  C17 UNL     1     170.521 187.670 289.152  1.00  0.00     0.102 A 
ENDROOT
BRANCH   1  12
HETATM   12  C8  UNL     1     173.077 187.540 289.236  1.00  0.00     0.311 C 
BRANCH  12  13
HETATM   13  N3  UNL     1     173.681 186.202 289.327  1.00  0.00     0.089 N 
HETATM   14  H16 UNL     1     174.721 186.327 289.327  1.00  0.00     0.316 HD
BRANCH  13  15
HETATM   15  C7  UNL     1     173.332 185.378 288.159  1.00  0.00     0.300 C 
BRANCH  15  16
HETATM   16  C6  UNL     1     174.326 185.595 287.001  1.00  0.00     0.302 C 
BRANCH  16  17
HETATM   17  N2  UNL     1     173.899 184.888 285.775  1.00  0.00     0.093 N 
HETATM   18  C3  UNL     1     174.880 185.113 284.685  1.00  0.00     0.302 C 
HETATM   19  C2  UNL     1     174.257 184.881 283.301  1.00  0.00     0.302 C 
HETATM   20  N1  UNL     1     173.118 185.795 283.040  1.00  0.00     0.087 N 
HETATM   21  C1  UNL     1     173.521 186.929 282.193  1.00  0.00     0.310 C 
HETATM   22  C4  UNL     1     172.456 186.282 284.271  1.00  0.00     0.302 C 
HETATM   23  C5  UNL     1     172.505 185.227 285.384  1.00  0.00     0.302 C 
ENDBRANCH  16  17
ENDBRANCH  15  16
ENDBRANCH  13  15
ENDBRANCH  12  13
ENDBRANCH   1  12
BRANCH  11  24
HETATM   24  S1  UNL     1     170.518 187.890 287.367  1.00  0.00    -0.105 SA
BRANCH  24  25
HETATM   25  C18 UNL     1     168.780 188.446 287.273  1.00  0.00     0.119 C 
BRANCH  25  26
HETATM   26  C19 UNL     1     168.708 189.881 286.840  1.00  0.00    -0.049 A 
HETATM   27  C20 UNL     1     168.671 190.914 287.792  1.00  0.00     0.008 A 
HETATM   28  C21 UNL     1     168.643 192.250 287.378  1.00  0.00     0.001 A 
HETATM   29  C22 UNL     1     168.646 192.563 286.017  1.00  0.00     0.000 A 
HETATM   30  C23 UNL     1     168.673 191.540 285.064  1.00  0.00     0.001 A 
HETATM   31  C24 UNL     1     168.699 190.203 285.473  1.00  0.00     0.008 A 
ENDBRANCH  25  26
ENDBRANCH  24  25
ENDBRANCH  11  24
TORSDOF 8
ENDMDL
MODEL 2
REMARK VINA RESULT:      -7.5     15.350     21.181
REMARK  8 active torsions:
REMARK  status: ('A' for Active; 'I' for Inactive)
REMARK    1  A    between atoms: N2_7  and  C6_8 
REMARK    2  A    between atoms: C6_8  and  C7_9 
REMARK    3  A    between atoms: C7_9  and  N3_10 
REMARK    4  A    between atoms: N3_10  and  C8_11 
REMARK    5  A    between atoms: C8_11  and  C9_12 
REMARK    6  A    between atoms: C17_22  and  S1_23 
REMARK    7  A    between atoms: S1_23  and  C18_24 
REMARK    8  A    between atoms: C18_24  and  C19_25 
ROOT
HETATM    1  C9  UNL     1     176.287 184.583 268.402  1.00  0.00     0.006 A 
HETATM    2  C10 UNL     1     177.028 183.765 267.533  1.00  0.00     0.025 A 
HETATM    3  C11 UNL     1     176.830 183.841 266.149  1.00  0.00    -0.005 A 
HETATM    4  C12 UNL     1     177.562 183.035 265.264  1.00  0.00     0.032 A 
HETATM    5  C13 UNL     1     177.345 183.136 263.884  1.00  0.00     0.011 A 
HETATM    6 BR1  UNL     1     178.339 182.036 262.680  1.00  0.00    -0.051 Br
HETATM    7  C14 UNL     1     176.402 184.042 263.387  1.00  0.00     0.021 A 
HETATM    8  C15 UNL     1     175.670 184.848 264.265  1.00  0.00     0.034 A 
HETATM    9  C16 UNL     1     175.880 184.751 265.644  1.00  0.00     0.068 A 
HETATM   10  N4  UNL     1     175.168 185.529 266.499  1.00  0.00    -0.241 NA
HETATM   11  C17 UNL     1     175.330 185.466 267.848  1.00  0.00     0.102 A 
ENDROOT
BRANCH   1  12
HETATM   12  C8  UNL     1     176.546 184.509 269.888  1.00  0.00     0.311 C 
BRANCH  12  13
HETATM   13  N3  UNL     1     175.566 183.621 270.530  1.00  0.00     0.089 N 
HETATM   14  H16 UNL     1     174.710 183.609 269.927  1.00  0.00     0.316 HD
BRANCH  13  15
HETATM   15  C7  UNL     1     175.172 184.128 271.854  1.00  0.00     0.300 C 
BRANCH  15  16
HETATM   16  C6  UNL     1     175.980 185.383 272.238  1.00  0.00     0.302 C 
BRANCH  16  17
HETATM   17  N2  UNL     1     175.364 186.103 273.374  1.00  0.00     0.093 N 
HETATM   18  C3  UNL     1     176.302 187.122 273.904  1.00  0.00     0.302 C 
HETATM   19  C2  UNL     1     175.967 187.506 275.353  1.00  0.00     0.302 C 
HETATM   20  N1  UNL     1     176.041 186.343 276.272  1.00  0.00     0.087 N 
HETATM   21  C1  UNL     1     177.307 186.331 277.022  1.00  0.00     0.310 C 
HETATM   22  C4  UNL     1     175.830 185.042 275.598  1.00  0.00     0.302 C 
HETATM   23  C5  UNL     1     174.855 185.177 274.420  1.00  0.00     0.302 C 
ENDBRANCH  16  17
ENDBRANCH  15  16
ENDBRANCH  13  15
ENDBRANCH  12  13
ENDBRANCH   1  12
BRANCH  11  24
HETATM   24  S1  UNL     1     174.307 186.537 268.869  1.00  0.00    -0.105 SA
BRANCH  24  25
HETATM   25  C18 UNL     1     174.669 188.058 267.925  1.00  0.00     0.119 C 
BRANCH  25  26
HETATM   26  C19 UNL     1     173.396 188.734 267.504  1.00  0.00    -0.049 A 
HETATM   27  C20 UNL     1     172.394 188.014 266.833  1.00  0.00     0.008 A 
HETATM   28  C21 UNL     1     171.195 188.642 266.480  1.00  0.00     0.001 A 
HETATM   29  C22 UNL     1     170.992 189.990 266.787  1.00  0.00     0.000 A 
HETATM   30  C23 UNL     1     171.990 190.715 267.446  1.00  0.00     0.001 A 
HETATM   31  C24 UNL     1     173.190 190.091 267.800  1.00  0.00     0.008 A 
ENDBRANCH  25  26
ENDBRANCH  24  25
ENDBRANCH  11  24
TORSDOF 8
ENDMDL
MODEL 3
REMARK VINA RESULT:      -7.5      2.728      5.498
REMARK  8 active torsions:
REMARK  status: ('A' for Active; 'I' for Inactive)
REMARK    1  A    between atoms: N2_7  and  C6_8 
REMARK    2  A    between atoms: C6_8  and  C7_9 
REMARK    3  A    between atoms: C7_9  and  N3_10 
REMARK    4  A    between atoms: N3_10  and  C8_11 
REMARK    5  A    between atoms: C8_11  and  C9_12 
REMARK    6  A    between atoms: C17_22  and  S1_23 
REMARK    7  A    between atoms: S1_23  and  C18_24 
REMARK    8  A    between atoms: C18_24  and  C19_25 
ROOT
HETATM    1  C9  UNL     1     172.991 186.067 287.667  1.00  0.00     0.006 A 
HETATM    2  C10 UNL     1     171.969 186.565 286.842  1.00  0.00     0.025 A 
HETATM    3  C11 UNL     1     171.114 187.572 287.304  1.00  0.00    -0.005 A 
HETATM    4  C12 UNL     1     170.089 188.086 286.496  1.00  0.00     0.032 A 
HETATM    5  C13 UNL     1     169.253 189.097 286.984  1.00  0.00     0.011 A 
HETATM    6 BR1  UNL     1     167.855 189.793 285.884  1.00  0.00    -0.051 Br
HETATM    7  C14 UNL     1     169.440 189.598 288.277  1.00  0.00     0.021 A 
HETATM    8  C15 UNL     1     170.460 189.090 289.087  1.00  0.00     0.034 A 
HETATM    9  C16 UNL     1     171.299 188.079 288.606  1.00  0.00     0.068 A 
HETATM   10  N4  UNL     1     172.287 187.581 289.392  1.00  0.00    -0.241 NA
HETATM   11  C17 UNL     1     173.122 186.593 288.973  1.00  0.00     0.102 A 
ENDROOT
BRANCH   1  12
HETATM   12  C8  UNL     1     173.923 185.006 287.130  1.00  0.00     0.311 C 
BRANCH  12  13
HETATM   13  N3  UNL     1     174.785 185.571 286.082  1.00  0.00     0.089 N 
HETATM   14  H16 UNL     1     174.487 186.564 285.931  1.00  0.00     0.316 HD
BRANCH  13  15
HETATM   15  C7  UNL     1     174.614 184.857 284.806  1.00  0.00     0.300 C 
BRANCH  15  16
HETATM   16  C6  UNL     1     175.281 185.617 283.643  1.00  0.00     0.302 C 
BRANCH  16  17
HETATM   17  N2  UNL     1     174.334 185.857 282.533  1.00  0.00     0.093 N 
HETATM   18  C3  UNL     1     174.858 186.913 281.632  1.00  0.00     0.302 C 
HETATM   19  C2  UNL     1     173.738 187.570 280.813  1.00  0.00     0.302 C 
HETATM   20  N1  UNL     1     172.719 188.219 281.677  1.00  0.00     0.087 N 
HETATM   21  C1  UNL     1     172.929 189.673 281.757  1.00  0.00     0.310 C 
HETATM   22  C4  UNL     1     172.639 187.636 283.036  1.00  0.00     0.302 C 
HETATM   23  C5  UNL     1     172.956 186.134 283.017  1.00  0.00     0.302 C 
ENDBRANCH  16  17
ENDBRANCH  15  16
ENDBRANCH  13  15
ENDBRANCH  12  13
ENDBRANCH   1  12
BRANCH  11  24
HETATM   24  S1  UNL     1     174.377 186.008 290.122  1.00  0.00    -0.105 SA
BRANCH  24  25
HETATM   25  C18 UNL     1     173.266 184.853 291.002  1.00  0.00     0.119 C 
BRANCH  25  26
HETATM   26  C19 UNL     1     172.120 185.595 291.625  1.00  0.00    -0.049 A 
HETATM   27  C20 UNL     1     172.344 186.515 292.663  1.00  0.00     0.008 A 
HETATM   28  C21 UNL     1     171.275 187.230 293.211  1.00  0.00     0.001 A 
HETATM   29  C22 UNL     1     169.978 187.029 292.733  1.00  0.00     0.000 A 
HETATM   30  C23 UNL     1     169.746 186.107 291.707  1.00  0.00     0.001 A 
HETATM   31  C24 UNL     1     170.812 185.390 291.157  1.00  0.00     0.008 A 
ENDBRANCH  25  26
ENDBRANCH  24  25
ENDBRANCH  11  24
TORSDOF 8
ENDMDL
MODEL 4
REMARK VINA RESULT:      -7.2      5.838      9.837
REMARK  8 active torsions:
REMARK  status: ('A' for Active; 'I' for Inactive)
REMARK    1  A    between atoms: N2_7  and  C6_8 
REMARK    2  A    between atoms: C6_8  and  C7_9 
REMARK    3  A    between atoms: C7_9  and  N3_10 
REMARK    4  A    between atoms: N3_10  and  C8_11 
REMARK    5  A    between atoms: C8_11  and  C9_12 
REMARK    6  A    between atoms: C17_22  and  S1_23 
REMARK    7  A    between atoms: S1_23  and  C18_24 
REMARK    8  A    between atoms: C18_24  and  C19_25 
ROOT
HETATM    1  C9  UNL     1     173.283 187.325 280.473  1.00  0.00     0.006 A 
HETATM    2  C10 UNL     1     172.196 188.173 280.204  1.00  0.00     0.025 A 
HETATM    3  C11 UNL     1     171.815 189.151 281.130  1.00  0.00    -0.005 A 
HETATM    4  C12 UNL     1     170.734 190.009 280.879  1.00  0.00     0.032 A 
HETATM    5  C13 UNL     1     170.380 190.981 281.822  1.00  0.00     0.011 A 
HETATM    6 BR1  UNL     1     168.906 192.148 281.483  1.00  0.00    -0.051 Br
HETATM    7  C14 UNL     1     171.104 191.099 283.014  1.00  0.00     0.021 A 
HETATM    8  C15 UNL     1     172.183 190.247 283.269  1.00  0.00     0.034 A 
HETATM    9  C16 UNL     1     172.542 189.273 282.331  1.00  0.00     0.068 A 
HETATM   10  N4  UNL     1     173.586 188.441 282.578  1.00  0.00    -0.241 NA
HETATM   11  C17 UNL     1     173.968 187.473 281.702  1.00  0.00     0.102 A 
ENDROOT
BRANCH   1  12
HETATM   12  C8  UNL     1     173.697 186.303 279.441  1.00  0.00     0.311 C 
BRANCH  12  13
HETATM   13  N3  UNL     1     172.592 185.369 279.180  1.00  0.00     0.089 N 
HETATM   14  H16 UNL     1     172.906 184.417 279.483  1.00  0.00     0.316 HD
BRANCH  13  15
HETATM   15  C7  UNL     1     172.279 185.298 277.744  1.00  0.00     0.300 C 
BRANCH  15  16
HETATM   16  C6  UNL     1     172.815 186.532 276.991  1.00  0.00     0.302 C 
BRANCH  16  17
HETATM   17  N2  UNL     1     173.546 186.148 275.764  1.00  0.00     0.093 N 
HETATM   18  C3  UNL     1     174.712 185.298 276.108  1.00  0.00     0.302 C 
HETATM   19  C2  UNL     1     175.777 185.318 275.001  1.00  0.00     0.302 C 
HETATM   20  N1  UNL     1     176.305 186.684 274.756  1.00  0.00     0.087 N 
HETATM   21  C1  UNL     1     177.604 186.884 275.416  1.00  0.00     0.310 C 
HETATM   22  C4  UNL     1     175.362 187.759 275.139  1.00  0.00     0.302 C 
HETATM   23  C5  UNL     1     173.905 187.324 274.929  1.00  0.00     0.302 C 
ENDBRANCH  16  17
ENDBRANCH  15  16
ENDBRANCH  13  15
ENDBRANCH  12  13
ENDBRANCH   1  12
BRANCH  11  24
HETATM   24  S1  UNL     1     175.355 186.423 282.161  1.00  0.00    -0.105 SA
BRANCH  24  25
HETATM   25  C18 UNL     1     174.330 184.962 282.556  1.00  0.00     0.119 C 
BRANCH  25  26
HETATM   26  C19 UNL     1     174.005 184.926 284.021  1.00  0.00    -0.049 A 
HETATM   27  C20 UNL     1     174.979 184.548 284.960  1.00  0.00     0.008 A 
HETATM   28  C21 UNL     1     174.678 184.555 286.326  1.00  0.00     0.001 A 
HETATM   29  C22 UNL     1     173.406 184.933 286.762  1.00  0.00     0.000 A 
HETATM   30  C23 UNL     1     172.429 185.302 285.832  1.00  0.00     0.001 A 
HETATM   31  C24 UNL     1     172.724 185.295 284.466  1.00  0.00     0.008 A 
ENDBRANCH  25  26
ENDBRANCH  24  25
ENDBRANCH  11  24
TORSDOF 8
ENDMDL
MODEL 5
REMARK VINA RESULT:      -7.2     15.051     19.933
REMARK  8 active torsions:
REMARK  status: ('A' for Active; 'I' for Inactive)
REMARK    1  A    between atoms: N2_7  and  C6_8 
REMARK    2  A    between atoms: C6_8  and  C7_9 
REMARK    3  A    between atoms: C7_9  and  N3_10 
REMARK    4  A    between atoms: N3_10  and  C8_11 
REMARK    5  A    between atoms: C8_11  and  C9_12 
REMARK    6  A    between atoms: C17_22  and  S1_23 
REMARK    7  A    between atoms: S1_23  and  C18_24 
REMARK    8  A    between atoms: C18_24  and  C19_25 
ROOT
HETATM    1  C9  UNL     1     174.733 186.941 268.937  1.00  0.00     0.006 A 
HETATM    2  C10 UNL     1     175.002 186.636 267.592  1.00  0.00     0.025 A 
HETATM    3  C11 UNL     1     175.465 185.366 267.234  1.00  0.00    -0.005 A 
HETATM    4  C12 UNL     1     175.737 185.040 265.896  1.00  0.00     0.032 A 
HETATM    5  C13 UNL     1     176.196 183.759 265.567  1.00  0.00     0.011 A 
HETATM    6 BR1  UNL     1     176.569 183.317 263.747  1.00  0.00    -0.051 Br
HETATM    7  C14 UNL     1     176.382 182.802 266.571  1.00  0.00     0.021 A 
HETATM    8  C15 UNL     1     176.112 183.120 267.906  1.00  0.00     0.034 A 
HETATM    9  C16 UNL     1     175.655 184.399 268.242  1.00  0.00     0.068 A 
HETATM   10  N4  UNL     1     175.397 184.712 269.537  1.00  0.00    -0.241 NA
HETATM   11  C17 UNL     1     174.958 185.943 269.914  1.00  0.00     0.102 A 
ENDROOT
BRANCH   1  12
HETATM   12  C8  UNL     1     174.197 188.308 269.293  1.00  0.00     0.311 C 
BRANCH  12  13
HETATM   13  N3  UNL     1     175.280 189.302 269.260  1.00  0.00     0.089 N 
HETATM   14  H16 UNL     1     176.135 188.822 268.892  1.00  0.00     0.316 HD
BRANCH  13  15
HETATM   15  C7  UNL     1     175.593 189.796 270.610  1.00  0.00     0.300 C 
BRANCH  15  16
HETATM   16  C6  UNL     1     175.708 191.334 270.632  1.00  0.00     0.302 C 
BRANCH  16  17
HETATM   17  N2  UNL     1     174.452 191.968 271.085  1.00  0.00     0.093 N 
HETATM   18  C3  UNL     1     174.749 193.207 271.846  1.00  0.00     0.302 C 
HETATM   19  C2  UNL     1     173.587 193.600 272.770  1.00  0.00     0.302 C 
HETATM   20  N1  UNL     1     173.288 192.547 273.773  1.00  0.00     0.087 N 
HETATM   21  C1  UNL     1     173.874 192.871 275.083  1.00  0.00     0.310 C 
HETATM   22  C4  UNL     1     173.700 191.191 273.347  1.00  0.00     0.302 C 
HETATM   23  C5  UNL     1     173.576 191.023 271.826  1.00  0.00     0.302 C 
ENDBRANCH  16  17
ENDBRANCH  15  16
ENDBRANCH  13  15
ENDBRANCH  12  13
ENDBRANCH   1  12
BRANCH  11  24
HETATM   24  S1  UNL     1     174.675 186.235 271.667  1.00  0.00    -0.105 SA
BRANCH  24  25
HETATM   25  C18 UNL     1     176.342 185.702 272.192  1.00  0.00     0.119 C 
BRANCH  25  26
HETATM   26  C19 UNL     1     176.457 185.726 273.689  1.00  0.00    -0.049 A 
HETATM   27  C20 UNL     1     175.451 185.162 274.492  1.00  0.00     0.008 A 
HETATM   28  C21 UNL     1     175.585 185.155 275.884  1.00  0.00     0.001 A 
HETATM   29  C22 UNL     1     176.717 185.714 276.483  1.00  0.00     0.000 A 
HETATM   30  C23 UNL     1     177.717 186.286 275.690  1.00  0.00     0.001 A 
HETATM   31  C24 UNL     1     177.587 186.296 274.298  1.00  0.00     0.008 A 
ENDBRANCH  25  26
ENDBRANCH  24  25
ENDBRANCH  11  24
TORSDOF 8
ENDMDL
MODEL 6
REMARK VINA RESULT:      -7.2      2.672      5.611
REMARK  8 active torsions:
REMARK  status: ('A' for Active; 'I' for Inactive)
REMARK    1  A    between atoms: N2_7  and  C6_8 
REMARK    2  A    between atoms: C6_8  and  C7_9 
REMARK    3  A    between atoms: C7_9  and  N3_10 
REMARK    4  A    between atoms: N3_10  and  C8_11 
REMARK    5  A    between atoms: C8_11  and  C9_12 
REMARK    6  A    between atoms: C17_22  and  S1_23 
REMARK    7  A    between atoms: S1_23  and  C18_24 
REMARK    8  A    between atoms: C18_24  and  C19_25 
ROOT
HETATM    1  C9  UNL     1     171.885 186.599 288.223  1.00  0.00     0.006 A 
HETATM    2  C10 UNL     1     171.367 187.092 287.014  1.00  0.00     0.025 A 
HETATM    3  C11 UNL     1     170.444 188.144 287.017  1.00  0.00    -0.005 A 
HETATM    4  C12 UNL     1     169.916 188.653 285.820  1.00  0.00     0.032 A 
HETATM    5  C13 UNL     1     168.997 189.708 285.854  1.00  0.00     0.011 A 
HETATM    6 BR1  UNL     1     168.277 190.399 284.226  1.00  0.00    -0.051 Br
HETATM    7  C14 UNL     1     168.606 190.258 287.080  1.00  0.00     0.021 A 
HETATM    8  C15 UNL     1     169.128 189.755 288.275  1.00  0.00     0.034 A 
HETATM    9  C16 UNL     1     170.046 188.700 288.249  1.00  0.00     0.068 A 
HETATM   10  N4  UNL     1     170.552 188.206 289.408  1.00  0.00    -0.241 NA
HETATM   11  C17 UNL     1     171.440 187.176 289.435  1.00  0.00     0.102 A 
ENDROOT
BRANCH   1  12
HETATM   12  C8  UNL     1     172.909 185.489 288.191  1.00  0.00     0.311 C 
BRANCH  12  13
HETATM   13  N3  UNL     1     173.964 185.800 287.214  1.00  0.00     0.089 N 
HETATM   14  H16 UNL     1     173.623 186.597 286.627  1.00  0.00     0.316 HD
BRANCH  13  15
HETATM   15  C7  UNL     1     174.214 184.661 286.317  1.00  0.00     0.300 C 
BRANCH  15  16
HETATM   16  C6  UNL     1     175.097 185.071 285.122  1.00  0.00     0.302 C 
BRANCH  16  17
HETATM   17  N2  UNL     1     174.387 184.902 283.836  1.00  0.00     0.093 N 
HETATM   18  C3  UNL     1     175.045 185.708 282.778  1.00  0.00     0.302 C 
HETATM   19  C2  UNL     1     174.092 186.004 281.612  1.00  0.00     0.302 C 
HETATM   20  N1  UNL     1     172.896 186.770 282.046  1.00  0.00     0.087 N 
HETATM   21  C1  UNL     1     173.033 188.201 281.734  1.00  0.00     0.310 C 
HETATM   22  C4  UNL     1     172.563 186.584 283.476  1.00  0.00     0.302 C 
HETATM   23  C5  UNL     1     172.931 185.173 283.955  1.00  0.00     0.302 C 
ENDBRANCH  16  17
ENDBRANCH  15  16
ENDBRANCH  13  15
ENDBRANCH  12  13
ENDBRANCH   1  12
BRANCH  11  24
HETATM   24  S1  UNL     1     172.015 186.603 291.040  1.00  0.00    -0.105 SA
BRANCH  24  25
HETATM   25  C18 UNL     1     171.134 187.886 291.997  1.00  0.00     0.119 C 
BRANCH  25  26
HETATM   26  C19 UNL     1     169.978 187.286 292.745  1.00  0.00    -0.049 A 
HETATM   27  C20 UNL     1     168.912 186.690 292.051  1.00  0.00     0.008 A 
HETATM   28  C21 UNL     1     167.858 186.099 292.756  1.00  0.00     0.001 A 
HETATM   29  C22 UNL     1     167.859 186.105 294.154  1.00  0.00     0.000 A 
HETATM   30  C23 UNL     1     168.912 186.706 294.850  1.00  0.00     0.001 A 
HETATM   31  C24 UNL     1     169.967 187.299 294.149  1.00  0.00     0.008 A 
ENDBRANCH  25  26
ENDBRANCH  24  25
ENDBRANCH  11  24
TORSDOF 8
ENDMDL
MODEL 7
REMARK VINA RESULT:      -6.8      2.794      4.519
REMARK  8 active torsions:
REMARK  status: ('A' for Active; 'I' for Inactive)
REMARK    1  A    between atoms: N2_7  and  C6_8 
REMARK    2  A    between atoms: C6_8  and  C7_9 
REMARK    3  A    between atoms: C7_9  and  N3_10 
REMARK    4  A    between atoms: N3_10  and  C8_11 
REMARK    5  A    between atoms: C8_11  and  C9_12 
REMARK    6  A    between atoms: C17_22  and  S1_23 
REMARK    7  A    between atoms: S1_23  and  C18_24 
REMARK    8  A    between atoms: C18_24  and  C19_25 
ROOT
HETATM    1  C9  UNL     1     173.322 186.501 286.278  1.00  0.00     0.006 A 
HETATM    2  C10 UNL     1     173.491 186.356 287.665  1.00  0.00     0.025 A 
HETATM    3  C11 UNL     1     172.606 186.974 288.555  1.00  0.00    -0.005 A 
HETATM    4  C12 UNL     1     172.755 186.840 289.943  1.00  0.00     0.032 A 
HETATM    5  C13 UNL     1     171.851 187.467 290.809  1.00  0.00     0.011 A 
HETATM    6 BR1  UNL     1     172.056 187.285 292.699  1.00  0.00    -0.051 Br
HETATM    7  C14 UNL     1     170.797 188.227 290.290  1.00  0.00     0.021 A 
HETATM    8  C15 UNL     1     170.642 188.365 288.907  1.00  0.00     0.034 A 
HETATM    9  C16 UNL     1     171.543 187.742 288.037  1.00  0.00     0.068 A 
HETATM   10  N4  UNL     1     171.399 187.878 286.694  1.00  0.00    -0.241 NA
HETATM   11  C17 UNL     1     172.252 187.299 285.807  1.00  0.00     0.102 A 
ENDROOT
BRANCH   1  12
HETATM   12  C8  UNL     1     174.269 185.792 285.339  1.00  0.00     0.311 C 
BRANCH  12  13
HETATM   13  N3  UNL     1     174.893 186.758 284.423  1.00  0.00     0.089 N 
HETATM   14  H16 UNL     1     174.203 186.960 283.662  1.00  0.00     0.316 HD
BRANCH  13  15
HETATM   15  C7  UNL     1     176.098 186.195 283.793  1.00  0.00     0.300 C 
BRANCH  15  16
HETATM   16  C6  UNL     1     175.929 186.075 282.265  1.00  0.00     0.302 C 
BRANCH  16  17
HETATM   17  N2  UNL     1     174.660 186.679 281.807  1.00  0.00     0.093 N 
HETATM   18  C3  UNL     1     173.703 185.618 281.408  1.00  0.00     0.302 C 
HETATM   19  C2  UNL     1     172.625 186.153 280.453  1.00  0.00     0.302 C 
HETATM   20  N1  UNL     1     173.207 186.692 279.199  1.00  0.00     0.087 N 
HETATM   21  C1  UNL     1     173.096 185.725 278.095  1.00  0.00     0.310 C 
HETATM   22  C4  UNL     1     174.609 187.146 279.344  1.00  0.00     0.302 C 
HETATM   23  C5  UNL     1     174.870 187.703 280.750  1.00  0.00     0.302 C 
ENDBRANCH  16  17
ENDBRANCH  15  16
ENDBRANCH  13  15
ENDBRANCH  12  13
ENDBRANCH   1  12
BRANCH  11  24
HETATM   24  S1  UNL     1     171.961 187.576 284.054  1.00  0.00    -0.105 SA
BRANCH  24  25
HETATM   25  C18 UNL     1     170.930 189.066 284.294  1.00  0.00     0.119 C 
BRANCH  25  26
HETATM   26  C19 UNL     1     171.218 190.084 283.228  1.00  0.00    -0.049 A 
HETATM   27  C20 UNL     1     170.277 191.081 282.922  1.00  0.00     0.008 A 
HETATM   28  C21 UNL     1     170.570 192.049 281.955  1.00  0.00     0.001 A 
HETATM   29  C22 UNL     1     171.796 192.023 281.285  1.00  0.00     0.000 A 
HETATM   30  C23 UNL     1     172.732 191.027 281.579  1.00  0.00     0.001 A 
HETATM   31  C24 UNL     1     172.444 190.058 282.544  1.00  0.00     0.008 A 
ENDBRANCH  25  26
ENDBRANCH  24  25
ENDBRANCH  11  24
TORSDOF 8
ENDMDL
MODEL 8
REMARK VINA RESULT:      -6.7      7.946     12.802
REMARK  8 active torsions:
REMARK  status: ('A' for Active; 'I' for Inactive)
REMARK    1  A    between atoms: N2_7  and  C6_8 
REMARK    2  A    between atoms: C6_8  and  C7_9 
REMARK    3  A    between atoms: C7_9  and  N3_10 
REMARK    4  A    between atoms: N3_10  and  C8_11 
REMARK    5  A    between atoms: C8_11  and  C9_12 
REMARK    6  A    between atoms: C17_22  and  S1_23 
REMARK    7  A    between atoms: S1_23  and  C18_24 
REMARK    8  A    between atoms: C18_24  and  C19_25 
ROOT
HETATM    1  C9  UNL     1     173.072 186.277 278.490  1.00  0.00     0.006 A 
HETATM    2  C10 UNL     1     173.064 185.754 277.186  1.00  0.00     0.025 A 
HETATM    3  C11 UNL     1     174.210 185.828 276.387  1.00  0.00    -0.005 A 
HETATM    4  C12 UNL     1     174.224 185.310 275.083  1.00  0.00     0.032 A 
HETATM    5  C13 UNL     1     175.388 185.394 274.308  1.00  0.00     0.011 A 
HETATM    6 BR1  UNL     1     175.405 184.691 272.533  1.00  0.00    -0.051 Br
HETATM    7  C14 UNL     1     176.537 185.994 274.834  1.00  0.00     0.021 A 
HETATM    8  C15 UNL     1     176.530 186.512 276.133  1.00  0.00     0.034 A 
HETATM    9  C16 UNL     1     175.371 186.432 276.912  1.00  0.00     0.068 A 
HETATM   10  N4  UNL     1     175.359 186.939 278.171  1.00  0.00    -0.241 NA
HETATM   11  C17 UNL     1     174.254 186.892 278.964  1.00  0.00     0.102 A 
ENDROOT
BRANCH   1  12
HETATM   12  C8  UNL     1     171.834 186.150 279.345  1.00  0.00     0.311 C 
BRANCH  12  13
HETATM   13  N3  UNL     1     171.046 187.390 279.284  1.00  0.00     0.089 N 
HETATM   14  H16 UNL     1     170.671 187.572 280.244  1.00  0.00     0.316 HD
BRANCH  13  15
HETATM   15  C7  UNL     1     169.896 187.248 278.376  1.00  0.00     0.300 C 
BRANCH  15  16
HETATM   16  C6  UNL     1     169.408 188.620 277.869  1.00  0.00     0.302 C 
BRANCH  16  17
HETATM   17  N2  UNL     1     169.420 188.691 276.392  1.00  0.00     0.093 N 
HETATM   18  C3  UNL     1     170.221 187.575 275.832  1.00  0.00     0.302 C 
HETATM   19  C2  UNL     1     170.712 187.883 274.410  1.00  0.00     0.302 C 
HETATM   20  N1  UNL     1     171.577 189.089 274.366  1.00  0.00     0.087 N 
HETATM   21  C1  UNL     1     173.002 188.726 274.317  1.00  0.00     0.310 C 
HETATM   22  C4  UNL     1     171.325 190.038 275.474  1.00  0.00     0.302 C 
HETATM   23  C5  UNL     1     169.849 190.024 275.894  1.00  0.00     0.302 C 
ENDBRANCH  16  17
ENDBRANCH  15  16
ENDBRANCH  13  15
ENDBRANCH  12  13
ENDBRANCH   1  12
BRANCH  11  24
HETATM   24  S1  UNL     1     174.366 187.620 280.605  1.00  0.00    -0.105 SA
BRANCH  24  25
HETATM   25  C18 UNL     1     175.136 186.156 281.381  1.00  0.00     0.119 C 
BRANCH  25  26
HETATM   26  C19 UNL     1     174.478 185.847 282.695  1.00  0.00    -0.049 A 
HETATM   27  C20 UNL     1     175.238 185.385 283.783  1.00  0.00     0.008 A 
HETATM   28  C21 UNL     1     174.622 185.138 285.014  1.00  0.00     0.001 A 
HETATM   29  C22 UNL     1     173.249 185.343 285.166  1.00  0.00     0.000 A 
HETATM   30  C23 UNL     1     172.485 185.794 284.084  1.00  0.00     0.001 A 
HETATM   31  C24 UNL     1     173.096 186.041 282.852  1.00  0.00     0.008 A 
ENDBRANCH  25  26
ENDBRANCH  24  25
ENDBRANCH  11  24
TORSDOF 8
ENDMDL
MODEL 9
REMARK VINA RESULT:      -6.7      3.546      6.645
REMARK  8 active torsions:
REMARK  status: ('A' for Active; 'I' for Inactive)
REMARK    1  A    between atoms: N2_7  and  C6_8 
REMARK    2  A    between atoms: C6_8  and  C7_9 
REMARK    3  A    between atoms: C7_9  and  N3_10 
REMARK    4  A    between atoms: N3_10  and  C8_11 
REMARK    5  A    between atoms: C8_11  and  C9_12 
REMARK    6  A    between atoms: C17_22  and  S1_23 
REMARK    7  A    between atoms: S1_23  and  C18_24 
REMARK    8  A    between atoms: C18_24  and  C19_25 
ROOT
HETATM    1  C9  UNL     1     168.651 190.829 286.044  1.00  0.00     0.006 A 
HETATM    2  C10 UNL     1     168.579 191.706 287.139  1.00  0.00     0.025 A 
HETATM    3  C11 UNL     1     168.812 193.075 286.965  1.00  0.00    -0.005 A 
HETATM    4  C12 UNL     1     168.743 193.968 288.045  1.00  0.00     0.032 A 
HETATM    5  C13 UNL     1     168.977 195.333 287.840  1.00  0.00     0.011 A 
HETATM    6 BR1  UNL     1     168.885 196.548 289.310  1.00  0.00    -0.051 Br
HETATM    7  C14 UNL     1     169.278 195.808 286.559  1.00  0.00     0.021 A 
HETATM    8  C15 UNL     1     169.349 194.923 285.479  1.00  0.00     0.034 A 
HETATM    9  C16 UNL     1     169.117 193.557 285.676  1.00  0.00     0.068 A 
HETATM   10  N4  UNL     1     169.190 192.694 284.631  1.00  0.00    -0.241 NA
HETATM   11  C17 UNL     1     168.981 191.358 284.774  1.00  0.00     0.102 A 
ENDROOT
BRANCH   1  12
HETATM   12  C8  UNL     1     168.357 189.361 286.251  1.00  0.00     0.311 C 
BRANCH  12  13
HETATM   13  N3  UNL     1     168.363 189.041 287.686  1.00  0.00     0.089 N 
HETATM   14  H16 UNL     1     168.874 189.810 288.178  1.00  0.00     0.316 HD
BRANCH  13  15
HETATM   15  C7  UNL     1     169.085 187.786 287.950  1.00  0.00     0.300 C 
BRANCH  15  16
HETATM   16  C6  UNL     1     170.537 187.855 287.437  1.00  0.00     0.302 C 
BRANCH  16  17
HETATM   17  N2  UNL     1     171.409 186.886 288.135  1.00  0.00     0.093 N 
HETATM   18  C3  UNL     1     172.835 187.244 287.935  1.00  0.00     0.302 C 
HETATM   19  C2  UNL     1     173.760 186.038 288.154  1.00  0.00     0.302 C 
HETATM   20  N1  UNL     1     173.466 184.928 287.213  1.00  0.00     0.087 N 
HETATM   21  C1  UNL     1     174.416 184.909 286.090  1.00  0.00     0.310 C 
HETATM   22  C4  UNL     1     172.074 184.934 286.709  1.00  0.00     0.302 C 
HETATM   23  C5  UNL     1     171.102 185.480 287.764  1.00  0.00     0.302 C 
ENDBRANCH  16  17
ENDBRANCH  15  16
ENDBRANCH  13  15
ENDBRANCH  12  13
ENDBRANCH   1  12
BRANCH  11  24
HETATM   24  S1  UNL     1     169.128 190.322 283.311  1.00  0.00    -0.105 SA
BRANCH  24  25
HETATM   25  C18 UNL     1     170.825 190.861 282.899  1.00  0.00     0.119 C 
BRANCH  25  26
HETATM   26  C19 UNL     1     171.811 189.766 283.184  1.00  0.00    -0.049 A 
HETATM   27  C20 UNL     1     171.449 188.670 283.984  1.00  0.00     0.008 A 
HETATM   28  C21 UNL     1     172.362 187.635 284.212  1.00  0.00     0.001 A 
HETATM   29  C22 UNL     1     173.640 187.690 283.649  1.00  0.00     0.000 A 
HETATM   30  C23 UNL     1     174.009 188.783 282.860  1.00  0.00     0.001 A 
HETATM   31  C24 UNL     1     173.101 189.820 282.630  1.00  0.00     0.008 A 
ENDBRANCH  25  26
ENDBRANCH  24  25
ENDBRANCH  11  24
TORSDOF 8
ENDMDL
