MODEL 1
REMARK VINA RESULT:      -9.7      0.000      0.000
REMARK  9 active torsions:
REMARK  status: ('A' for Active; 'I' for Inactive)
REMARK    1  A    between atoms: C_4  and  S_29 
REMARK    2  A    between atoms: C_5  and  C_7 
REMARK    3  A    between atoms: C_7  and  N_8 
REMARK    4  A    between atoms: N_8  and  C_9 
REMARK    5  A    between atoms: C_9  and  C_10 
REMARK    6  A    between atoms: C_10  and  C_11 
REMARK    7  A    between atoms: N_14  and  C_17 
REMARK    8  A    between atoms: S_29  and  C_36 
REMARK    9  A    between atoms: C_30  and  C_36 
ROOT
HETATM    1  C           1     171.577 189.306 280.962  0.00  0.00    -0.008 A 
HETATM    2  C           1     170.796 188.984 279.864  0.00  0.00     0.130 A 
HETATM    3  N           1     171.024 187.918 279.066  0.00  0.00    -0.253 NA
HETATM    4  C           1     172.081 187.139 279.384  0.00  0.00     0.101 A 
HETATM    5  C           1     172.919 187.379 280.461  0.00  0.00     0.006 A 
HETATM    6  C           1     172.658 188.485 281.263  0.00  0.00     0.025 A 
HETATM    7  C           1     171.299 190.377 281.712  0.00  0.00    -0.025 A 
HETATM    8  C           1     172.034 191.552 281.550  0.00  0.00     0.013 A 
HETATM    9  C           1     171.743 192.669 282.333  0.00  0.00     0.007 A 
HETATM   10  C           1     170.719 192.612 283.277  0.00  0.00    -0.062 A 
HETATM   11  C           1     169.983 191.437 283.439  0.00  0.00     0.007 A 
HETATM   12  C           1     170.274 190.320 282.657  0.00  0.00     0.013 A 
HETATM   13  C           1     170.406 193.811 284.116  0.00  0.00     0.048 C 
ENDROOT
BRANCH   5  14
HETATM   14  C           1     174.073 186.471 280.754  0.00  0.00     0.311 C 
BRANCH  14  15
HETATM   15  N           1     175.056 187.178 281.529  0.00  0.00     0.087 N 
HETATM   16  H           1     175.795 187.518 280.914  0.00  0.00     0.316 HD
BRANCH  15  17
HETATM   17  C           1     175.611 186.253 282.480  0.00  0.00     0.270 C 
BRANCH  17  18
HETATM   18  C           1     174.724 185.019 282.567  0.00  0.00     0.034 C 
BRANCH  18  19
HETATM   19  C           1     174.183 184.881 283.984  0.00  0.00    -0.010 C 
HETATM   20  C           1     175.216 185.419 284.970  0.00  0.00     0.035 C 
HETATM   21  C           1     174.647 185.484 286.386  0.00  0.00     0.273 C 
HETATM   22  N           1     173.414 186.270 286.433  0.00  0.00     0.093 N 
HETATM   23  C           1     172.391 185.716 285.547  0.00  0.00     0.273 C 
HETATM   24  C           1     172.876 185.659 284.100  0.00  0.00     0.035 C 
BRANCH  22  25
HETATM   25  C           1     172.928 186.166 287.783  0.00  0.00     0.223 C 
HETATM   26  C           1     174.022 185.675 288.719  0.00  0.00     0.036 C 
HETATM   27  C           1     173.693 186.278 290.084  0.00  0.00     0.002 C 
HETATM   28  C           1     172.590 187.306 289.844  0.00  0.00     0.002 C 
HETATM   29  C           1     172.577 187.534 288.341  0.00  0.00     0.036 C 
ENDBRANCH  22  25
ENDBRANCH  18  19
ENDBRANCH  17  18
ENDBRANCH  15  17
ENDBRANCH  14  15
ENDBRANCH   5  14
BRANCH   4  30
HETATM   30  S           1     172.423 185.695 278.339  0.00  0.00    -0.105 SA
BRANCH  30  31
HETATM   31  C           1     173.028 186.687 276.946  0.00  0.00     0.119 C 
BRANCH  31  32
HETATM   32  C           1     174.415 186.251 276.587  0.00  0.00    -0.049 A 
HETATM   33  C           1     175.511 186.787 277.261  0.00  0.00     0.008 A 
HETATM   34  C           1     176.803 186.380 276.926  0.00  0.00     0.001 A 
HETATM   35  C           1     176.998 185.438 275.916  0.00  0.00     0.000 A 
HETATM   36  C           1     175.901 184.902 275.241  0.00  0.00     0.001 A 
HETATM   37  C           1     174.609 185.309 275.576  0.00  0.00     0.008 A 
ENDBRANCH  31  32
ENDBRANCH  30  31
ENDBRANCH   4  30
TORSDOF 9
ENDMDL
MODEL 2
REMARK VINA RESULT:      -9.1      2.337      9.168
REMARK  9 active torsions:
REMARK  status: ('A' for Active; 'I' for Inactive)
REMARK    1  A    between atoms: C_4  and  S_29 
REMARK    2  A    between atoms: C_5  and  C_7 
REMARK    3  A    between atoms: C_7  and  N_8 
REMARK    4  A    between atoms: N_8  and  C_9 
REMARK    5  A    between atoms: C_9  and  C_10 
REMARK    6  A    between atoms: C_10  and  C_11 
REMARK    7  A    between atoms: N_14  and  C_17 
REMARK    8  A    between atoms: S_29  and  C_36 
REMARK    9  A    between atoms: C_30  and  C_36 
ROOT
HETATM    1  C           1     172.706 189.409 282.389  0.00  0.00    -0.008 A 
HETATM    2  C           1     173.614 189.264 283.426  0.00  0.00     0.130 A 
HETATM    3  N           1     174.529 188.273 283.491  0.00  0.00    -0.253 NA
HETATM    4  C           1     174.537 187.388 282.470  0.00  0.00     0.101 A 
HETATM    5  C           1     173.671 187.450 281.389  0.00  0.00     0.006 A 
HETATM    6  C           1     172.739 188.483 281.352  0.00  0.00     0.025 A 
HETATM    7  C           1     171.824 190.413 282.384  0.00  0.00    -0.025 A 
HETATM    8  C           1     170.501 190.181 282.762  0.00  0.00     0.013 A 
HETATM    9  C           1     169.581 191.229 282.757  0.00  0.00     0.007 A 
HETATM   10  C           1     169.982 192.508 282.374  0.00  0.00    -0.062 A 
HETATM   11  C           1     171.305 192.741 281.997  0.00  0.00     0.007 A 
HETATM   12  C           1     172.225 191.694 282.001  0.00  0.00     0.013 A 
HETATM   13  C           1     168.994 193.633 282.370  0.00  0.00     0.048 C 
ENDROOT
BRANCH   5  14
HETATM   14  C           1     173.737 186.434 280.293  0.00  0.00     0.311 C 
BRANCH  14  15
HETATM   15  N           1     172.412 185.962 279.994  0.00  0.00     0.087 N 
HETATM   16  H           1     172.218 185.123 280.541  0.00  0.00     0.316 HD
BRANCH  15  17
HETATM   17  C           1     172.365 185.644 278.593  0.00  0.00     0.270 C 
BRANCH  17  18
HETATM   18  C           1     173.602 186.204 277.903  0.00  0.00     0.034 C 
BRANCH  18  19
HETATM   19  C           1     173.683 185.658 276.484  0.00  0.00    -0.010 C 
HETATM   20  C           1     173.055 186.663 275.523  0.00  0.00     0.035 C 
HETATM   21  C           1     173.283 186.256 274.068  0.00  0.00     0.273 C 
HETATM   22  N           1     174.705 186.070 273.781  0.00  0.00     0.093 N 
HETATM   23  C           1     175.298 185.050 274.647  0.00  0.00     0.273 C 
HETATM   24  C           1     175.144 185.413 276.122  0.00  0.00     0.035 C 
BRANCH  22  25
HETATM   25  C           1     174.777 185.589 272.427  0.00  0.00     0.223 C 
HETATM   26  C           1     176.217 185.319 272.020  0.00  0.00     0.036 C 
HETATM   27  C           1     176.146 184.200 270.982  0.00  0.00     0.002 C 
HETATM   28  C           1     174.714 183.674 271.015  0.00  0.00     0.002 C 
HETATM   29  C           1     174.115 184.227 272.299  0.00  0.00     0.036 C 
ENDBRANCH  22  25
ENDBRANCH  18  19
ENDBRANCH  17  18
ENDBRANCH  15  17
ENDBRANCH  14  15
ENDBRANCH   5  14
BRANCH   4  30
HETATM   30  S           1     175.752 186.040 282.516  0.00  0.00    -0.105 SA
BRANCH  30  31
HETATM   31  C           1     174.504 184.755 282.802  0.00  0.00     0.119 C 
BRANCH  31  32
HETATM   32  C           1     174.004 184.847 284.210  0.00  0.00    -0.049 A 
HETATM   33  C           1     172.660 185.128 284.456  0.00  0.00     0.008 A 
HETATM   34  C           1     172.195 185.214 285.768  0.00  0.00     0.001 A 
HETATM   35  C           1     173.074 185.018 286.834  0.00  0.00     0.000 A 
HETATM   36  C           1     174.417 184.737 286.588  0.00  0.00     0.001 A 
HETATM   37  C           1     174.883 184.651 285.276  0.00  0.00     0.008 A 
ENDBRANCH  31  32
ENDBRANCH  30  31
ENDBRANCH   4  30
TORSDOF 9
ENDMDL
MODEL 3
REMARK VINA RESULT:      -9.0      6.185     10.752
REMARK  9 active torsions:
REMARK  status: ('A' for Active; 'I' for Inactive)
REMARK    1  A    between atoms: C_4  and  S_29 
REMARK    2  A    between atoms: C_5  and  C_7 
REMARK    3  A    between atoms: C_7  and  N_8 
REMARK    4  A    between atoms: N_8  and  C_9 
REMARK    5  A    between atoms: C_9  and  C_10 
REMARK    6  A    between atoms: C_10  and  C_11 
REMARK    7  A    between atoms: N_14  and  C_17 
REMARK    8  A    between atoms: S_29  and  C_36 
REMARK    9  A    between atoms: C_30  and  C_36 
ROOT
HETATM    1  C           1     175.429 185.510 272.423  0.00  0.00    -0.008 A 
HETATM    2  C           1     175.869 184.668 271.414  0.00  0.00     0.130 A 
HETATM    3  N           1     175.252 184.539 270.219  0.00  0.00    -0.253 NA
HETATM    4  C           1     174.143 185.288 270.027  0.00  0.00     0.101 A 
HETATM    5  C           1     173.626 186.158 270.974  0.00  0.00     0.006 A 
HETATM    6  C           1     174.285 186.268 272.194  0.00  0.00     0.025 A 
HETATM    7  C           1     176.086 185.592 273.583  0.00  0.00    -0.025 A 
HETATM    8  C           1     175.606 184.916 274.706  0.00  0.00     0.013 A 
HETATM    9  C           1     176.291 185.002 275.917  0.00  0.00     0.007 A 
HETATM   10  C           1     177.456 185.763 276.007  0.00  0.00    -0.062 A 
HETATM   11  C           1     177.937 186.438 274.885  0.00  0.00     0.007 A 
HETATM   12  C           1     177.252 186.353 273.674  0.00  0.00     0.013 A 
HETATM   13  C           1     178.192 185.854 277.307  0.00  0.00     0.048 C 
ENDROOT
BRANCH   5  14
HETATM   14  C           1     172.393 186.957 270.691  0.00  0.00     0.311 C 
BRANCH  14  15
HETATM   15  N           1     172.677 188.356 270.863  0.00  0.00     0.087 N 
HETATM   16  H           1     173.509 188.466 271.442  0.00  0.00     0.316 HD
BRANCH  15  17
HETATM   17  C           1     171.550 188.953 271.525  0.00  0.00     0.270 C 
BRANCH  17  18
HETATM   18  C           1     172.041 189.892 272.618  0.00  0.00     0.034 C 
BRANCH  18  19
HETATM   19  C           1     171.807 189.252 273.981  0.00  0.00    -0.010 C 
HETATM   20  C           1     170.766 188.145 273.842  0.00  0.00     0.035 C 
HETATM   21  C           1     170.636 187.342 275.135  0.00  0.00     0.273 C 
HETATM   22  N           1     171.927 186.801 275.562  0.00  0.00     0.093 N 
HETATM   23  C           1     172.910 187.864 275.772  0.00  0.00     0.273 C 
HETATM   24  C           1     173.124 188.686 274.503  0.00  0.00     0.035 C 
BRANCH  22  25
HETATM   25  C           1     171.691 186.167 276.832  0.00  0.00     0.223 C 
HETATM   26  C           1     172.977 185.584 277.396  0.00  0.00     0.036 C 
HETATM   27  C           1     172.813 185.628 278.915  0.00  0.00     0.002 C 
HETATM   28  C           1     171.570 186.470 279.189  0.00  0.00     0.002 C 
HETATM   29  C           1     171.277 187.186 277.879  0.00  0.00     0.036 C 
ENDBRANCH  22  25
ENDBRANCH  18  19
ENDBRANCH  17  18
ENDBRANCH  15  17
ENDBRANCH  14  15
ENDBRANCH   5  14
BRANCH   4  30
HETATM   30  S           1     173.282 185.146 268.435  0.00  0.00    -0.105 SA
BRANCH  30  31
HETATM   31  C           1     174.464 186.205 267.556  0.00  0.00     0.119 C 
BRANCH  31  32
HETATM   32  C           1     173.957 187.613 267.539  0.00  0.00    -0.049 A 
HETATM   33  C           1     174.762 188.651 268.007  0.00  0.00     0.008 A 
HETATM   34  C           1     174.289 189.963 267.991  0.00  0.00     0.001 A 
HETATM   35  C           1     173.010 190.237 267.506  0.00  0.00     0.000 A 
HETATM   36  C           1     172.205 189.200 267.038  0.00  0.00     0.001 A 
HETATM   37  C           1     172.677 187.887 267.054  0.00  0.00     0.008 A 
ENDBRANCH  31  32
ENDBRANCH  30  31
ENDBRANCH   4  30
TORSDOF 9
ENDMDL
MODEL 4
REMARK VINA RESULT:      -8.9      9.542     16.772
REMARK  9 active torsions:
REMARK  status: ('A' for Active; 'I' for Inactive)
REMARK    1  A    between atoms: C_4  and  S_29 
REMARK    2  A    between atoms: C_5  and  C_7 
REMARK    3  A    between atoms: C_7  and  N_8 
REMARK    4  A    between atoms: N_8  and  C_9 
REMARK    5  A    between atoms: C_9  and  C_10 
REMARK    6  A    between atoms: C_10  and  C_11 
REMARK    7  A    between atoms: N_14  and  C_17 
REMARK    8  A    between atoms: S_29  and  C_36 
REMARK    9  A    between atoms: C_30  and  C_36 
ROOT
HETATM    1  C           1     175.467 185.639 272.341  0.00  0.00    -0.008 A 
HETATM    2  C           1     174.402 186.483 272.069  0.00  0.00     0.130 A 
HETATM    3  N           1     173.716 186.476 270.904  0.00  0.00    -0.253 NA
HETATM    4  C           1     174.116 185.583 269.972  0.00  0.00     0.101 A 
HETATM    5  C           1     175.168 184.700 270.151  0.00  0.00     0.006 A 
HETATM    6  C           1     175.854 184.731 271.361  0.00  0.00     0.025 A 
HETATM    7  C           1     176.104 185.696 273.514  0.00  0.00    -0.025 A 
HETATM    8  C           1     177.330 186.356 273.612  0.00  0.00     0.013 A 
HETATM    9  C           1     177.994 186.415 274.836  0.00  0.00     0.007 A 
HETATM   10  C           1     177.436 185.814 275.963  0.00  0.00    -0.062 A 
HETATM   11  C           1     176.210 185.155 275.867  0.00  0.00     0.007 A 
HETATM   12  C           1     175.545 185.095 274.643  0.00  0.00     0.013 A 
HETATM   13  C           1     178.149 185.878 277.277  0.00  0.00     0.048 C 
ENDROOT
BRANCH   5  14
HETATM   14  C           1     175.555 183.737 269.072  0.00  0.00     0.311 C 
BRANCH  14  15
HETATM   15  N           1     176.963 183.856 268.805  0.00  0.00     0.087 N 
HETATM   16  H           1     177.414 184.354 269.572  0.00  0.00     0.316 HD
BRANCH  15  17
HETATM   17  C           1     177.115 184.608 267.589  0.00  0.00     0.270 C 
BRANCH  17  18
HETATM   18  C           1     176.310 183.949 266.478  0.00  0.00     0.034 C 
BRANCH  18  19
HETATM   19  C           1     177.255 183.462 265.387  0.00  0.00    -0.010 C 
HETATM   20  C           1     177.382 181.944 265.475  0.00  0.00     0.035 C 
HETATM   21  C           1     178.162 181.384 264.286  0.00  0.00     0.273 C 
HETATM   22  N           1     177.563 181.789 263.014  0.00  0.00     0.093 N 
HETATM   23  C           1     177.507 183.246 262.888  0.00  0.00     0.273 C 
HETATM   24  C           1     176.704 183.874 264.025  0.00  0.00     0.035 C 
BRANCH  22  25
HETATM   25  C           1     178.440 181.295 261.987  0.00  0.00     0.223 C 
HETATM   26  C           1     178.659 182.343 260.907  0.00  0.00     0.036 C 
HETATM   27  C           1     180.052 182.064 260.343  0.00  0.00     0.002 C 
HETATM   28  C           1     180.700 181.050 261.282  0.00  0.00     0.002 C 
HETATM   29  C           1     179.837 181.058 262.534  0.00  0.00     0.036 C 
ENDBRANCH  22  25
ENDBRANCH  18  19
ENDBRANCH  17  18
ENDBRANCH  15  17
ENDBRANCH  14  15
ENDBRANCH   5  14
BRANCH   4  30
HETATM   30  S           1     173.222 185.541 268.392  0.00  0.00    -0.105 SA
BRANCH  30  31
HETATM   31  C           1     174.220 186.859 267.646  0.00  0.00     0.119 C 
BRANCH  31  32
HETATM   32  C           1     173.384 188.089 267.484  0.00  0.00    -0.049 A 
HETATM   33  C           1     173.821 189.305 268.009  0.00  0.00     0.008 A 
HETATM   34  C           1     173.041 190.451 267.858  0.00  0.00     0.001 A 
HETATM   35  C           1     171.823 190.382 267.181  0.00  0.00     0.000 A 
HETATM   36  C           1     171.385 189.167 266.657  0.00  0.00     0.001 A 
HETATM   37  C           1     172.165 188.020 266.807  0.00  0.00     0.008 A 
ENDBRANCH  31  32
ENDBRANCH  30  31
ENDBRANCH   4  30
TORSDOF 9
ENDMDL
MODEL 5
REMARK VINA RESULT:      -8.9      9.062     16.142
REMARK  9 active torsions:
REMARK  status: ('A' for Active; 'I' for Inactive)
REMARK    1  A    between atoms: C_4  and  S_29 
REMARK    2  A    between atoms: C_5  and  C_7 
REMARK    3  A    between atoms: C_7  and  N_8 
REMARK    4  A    between atoms: N_8  and  C_9 
REMARK    5  A    between atoms: C_9  and  C_10 
REMARK    6  A    between atoms: C_10  and  C_11 
REMARK    7  A    between atoms: N_14  and  C_17 
REMARK    8  A    between atoms: S_29  and  C_36 
REMARK    9  A    between atoms: C_30  and  C_36 
ROOT
HETATM    1  C           1     175.615 185.571 272.255  0.00  0.00    -0.008 A 
HETATM    2  C           1     174.506 186.334 271.926  0.00  0.00     0.130 A 
HETATM    3  N           1     173.889 186.286 270.725  0.00  0.00    -0.253 NA
HETATM    4  C           1     174.407 185.435 269.812  0.00  0.00     0.101 A 
HETATM    5  C           1     175.512 184.631 270.047  0.00  0.00     0.006 A 
HETATM    6  C           1     176.125 184.704 271.294  0.00  0.00     0.025 A 
HETATM    7  C           1     176.179 185.665 273.462  0.00  0.00    -0.025 A 
HETATM    8  C           1     177.344 186.415 273.632  0.00  0.00     0.013 A 
HETATM    9  C           1     177.933 186.513 274.892  0.00  0.00     0.007 A 
HETATM   10  C           1     177.359 185.862 275.983  0.00  0.00    -0.062 A 
HETATM   11  C           1     176.194 185.112 275.814  0.00  0.00     0.007 A 
HETATM   12  C           1     175.605 185.013 274.554  0.00  0.00     0.013 A 
HETATM   13  C           1     177.990 185.968 277.335  0.00  0.00     0.048 C 
ENDROOT
BRANCH   5  14
HETATM   14  C           1     176.031 183.711 268.987  0.00  0.00     0.311 C 
BRANCH  14  15
HETATM   15  N           1     177.275 184.219 268.476  0.00  0.00     0.087 N 
HETATM   16  H           1     177.396 185.187 268.776  0.00  0.00     0.316 HD
BRANCH  15  17
HETATM   17  C           1     177.213 184.167 267.040  0.00  0.00     0.270 C 
BRANCH  17  18
HETATM   18  C           1     176.614 182.837 266.605  0.00  0.00     0.034 C 
BRANCH  18  19
HETATM   19  C           1     175.780 183.042 265.348  0.00  0.00    -0.010 C 
HETATM   20  C           1     174.343 182.610 265.623  0.00  0.00     0.035 C 
HETATM   21  C           1     173.422 182.976 264.460  0.00  0.00     0.273 C 
HETATM   22  N           1     173.493 184.403 264.149  0.00  0.00     0.093 N 
HETATM   23  C           1     174.856 184.811 263.808  0.00  0.00     0.273 C 
HETATM   24  C           1     175.829 184.513 264.947  0.00  0.00     0.035 C 
BRANCH  22  25
HETATM   25  C           1     172.674 184.597 262.982  0.00  0.00     0.223 C 
HETATM   26  C           1     171.415 185.379 263.324  0.00  0.00     0.036 C 
HETATM   27  C           1     171.044 186.133 262.048  0.00  0.00     0.002 C 
HETATM   28  C           1     172.231 185.983 261.099  0.00  0.00     0.002 C 
HETATM   29  C           1     173.375 185.485 261.968  0.00  0.00     0.036 C 
ENDBRANCH  22  25
ENDBRANCH  18  19
ENDBRANCH  17  18
ENDBRANCH  15  17
ENDBRANCH  14  15
ENDBRANCH   5  14
BRANCH   4  30
HETATM   30  S           1     173.609 185.339 268.185  0.00  0.00    -0.105 SA
BRANCH  30  31
HETATM   31  C           1     174.613 186.672 267.472  0.00  0.00     0.119 C 
BRANCH  31  32
HETATM   32  C           1     173.808 187.933 267.427  0.00  0.00    -0.049 A 
HETATM   33  C           1     172.546 187.936 266.834  0.00  0.00     0.008 A 
HETATM   34  C           1     171.798 189.112 266.791  0.00  0.00     0.001 A 
HETATM   35  C           1     172.311 190.286 267.343  0.00  0.00     0.000 A 
HETATM   36  C           1     173.573 190.284 267.936  0.00  0.00     0.001 A 
HETATM   37  C           1     174.323 189.108 267.978  0.00  0.00     0.008 A 
ENDBRANCH  31  32
ENDBRANCH  30  31
ENDBRANCH   4  30
TORSDOF 9
ENDMDL
MODEL 6
REMARK VINA RESULT:      -8.8      8.868     13.143
REMARK  9 active torsions:
REMARK  status: ('A' for Active; 'I' for Inactive)
REMARK    1  A    between atoms: C_4  and  S_29 
REMARK    2  A    between atoms: C_5  and  C_7 
REMARK    3  A    between atoms: C_7  and  N_8 
REMARK    4  A    between atoms: N_8  and  C_9 
REMARK    5  A    between atoms: C_9  and  C_10 
REMARK    6  A    between atoms: C_10  and  C_11 
REMARK    7  A    between atoms: N_14  and  C_17 
REMARK    8  A    between atoms: S_29  and  C_36 
REMARK    9  A    between atoms: C_30  and  C_36 
ROOT
HETATM    1  C           1     174.051 185.521 273.225  0.00  0.00    -0.008 A 
HETATM    2  C           1     173.062 186.489 273.282  0.00  0.00     0.130 A 
HETATM    3  N           1     172.005 186.536 272.442  0.00  0.00    -0.253 NA
HETATM    4  C           1     171.935 185.567 271.503  0.00  0.00     0.101 A 
HETATM    5  C           1     172.874 184.556 271.366  0.00  0.00     0.006 A 
HETATM    6  C           1     173.951 184.537 272.247  0.00  0.00     0.025 A 
HETATM    7  C           1     175.072 185.531 274.086  0.00  0.00    -0.025 A 
HETATM    8  C           1     176.316 186.024 273.688  0.00  0.00     0.013 A 
HETATM    9  C           1     177.381 186.034 274.587  0.00  0.00     0.007 A 
HETATM   10  C           1     177.206 185.552 275.884  0.00  0.00    -0.062 A 
HETATM   11  C           1     175.962 185.060 276.282  0.00  0.00     0.007 A 
HETATM   12  C           1     174.897 185.048 275.384  0.00  0.00     0.013 A 
HETATM   13  C           1     178.349 185.564 276.849  0.00  0.00     0.048 C 
ENDROOT
BRANCH   5  14
HETATM   14  C           1     172.732 183.515 270.301  0.00  0.00     0.311 C 
BRANCH  14  15
HETATM   15  N           1     173.880 183.553 269.436  0.00  0.00     0.087 N 
HETATM   16  H           1     174.709 183.794 269.980  0.00  0.00     0.316 HD
BRANCH  15  17
HETATM   17  C           1     173.648 184.567 268.443  0.00  0.00     0.270 C 
BRANCH  17  18
HETATM   18  C           1     174.840 185.513 268.393  0.00  0.00     0.034 C 
BRANCH  18  19
HETATM   19  C           1     174.389 186.919 268.768  0.00  0.00    -0.010 C 
HETATM   20  C           1     175.005 187.302 270.110  0.00  0.00     0.035 C 
HETATM   21  C           1     174.744 188.771 270.440  0.00  0.00     0.273 C 
HETATM   22  N           1     175.218 189.652 269.372  0.00  0.00     0.093 N 
HETATM   23  C           1     174.574 189.341 268.096  0.00  0.00     0.273 C 
HETATM   24  C           1     174.828 187.894 267.679  0.00  0.00     0.035 C 
BRANCH  22  25
HETATM   25  C           1     174.821 190.982 269.749  0.00  0.00     0.223 C 
HETATM   26  C           1     173.568 190.952 270.612  0.00  0.00     0.036 C 
HETATM   27  C           1     173.664 192.182 271.514  0.00  0.00     0.002 C 
HETATM   28  C           1     175.078 192.733 271.341  0.00  0.00     0.002 C 
HETATM   29  C           1     175.858 191.621 270.657  0.00  0.00     0.036 C 
ENDBRANCH  22  25
ENDBRANCH  18  19
ENDBRANCH  17  18
ENDBRANCH  15  17
ENDBRANCH  14  15
ENDBRANCH   5  14
BRANCH   4  30
HETATM   30  S           1     170.531 185.591 270.353  0.00  0.00    -0.105 SA
BRANCH  30  31
HETATM   31  C           1     170.409 187.401 270.339  0.00  0.00     0.119 C 
BRANCH  31  32
HETATM   32  C           1     170.726 187.913 268.969  0.00  0.00    -0.049 A 
HETATM   33  C           1     170.907 187.019 267.914  0.00  0.00     0.008 A 
HETATM   34  C           1     171.203 187.497 266.638  0.00  0.00     0.001 A 
HETATM   35  C           1     171.318 188.870 266.416  0.00  0.00     0.000 A 
HETATM   36  C           1     171.137 189.764 267.471  0.00  0.00     0.001 A 
HETATM   37  C           1     170.841 189.286 268.748  0.00  0.00     0.008 A 
ENDBRANCH  31  32
ENDBRANCH  30  31
ENDBRANCH   4  30
TORSDOF 9
ENDMDL
MODEL 7
REMARK VINA RESULT:      -8.8      8.446     12.351
REMARK  9 active torsions:
REMARK  status: ('A' for Active; 'I' for Inactive)
REMARK    1  A    between atoms: C_4  and  S_29 
REMARK    2  A    between atoms: C_5  and  C_7 
REMARK    3  A    between atoms: C_7  and  N_8 
REMARK    4  A    between atoms: N_8  and  C_9 
REMARK    5  A    between atoms: C_9  and  C_10 
REMARK    6  A    between atoms: C_10  and  C_11 
REMARK    7  A    between atoms: N_14  and  C_17 
REMARK    8  A    between atoms: S_29  and  C_36 
REMARK    9  A    between atoms: C_30  and  C_36 
ROOT
HETATM    1  C           1     175.497 185.488 272.246  0.00  0.00    -0.008 A 
HETATM    2  C           1     176.046 184.683 271.261  0.00  0.00     0.130 A 
HETATM    3  N           1     175.503 184.521 270.034  0.00  0.00    -0.253 NA
HETATM    4  C           1     174.360 185.198 269.783  0.00  0.00     0.101 A 
HETATM    5  C           1     173.737 186.026 270.704  0.00  0.00     0.006 A 
HETATM    6  C           1     174.320 186.171 271.958  0.00  0.00     0.025 A 
HETATM    7  C           1     176.084 185.606 273.441  0.00  0.00    -0.025 A 
HETATM    8  C           1     175.589 184.893 274.534  0.00  0.00     0.013 A 
HETATM    9  C           1     176.201 185.016 275.781  0.00  0.00     0.007 A 
HETATM   10  C           1     177.307 185.851 275.937  0.00  0.00    -0.062 A 
HETATM   11  C           1     177.802 186.563 274.844  0.00  0.00     0.007 A 
HETATM   12  C           1     177.190 186.441 273.597  0.00  0.00     0.013 A 
HETATM   13  C           1     177.964 185.982 277.275  0.00  0.00     0.048 C 
ENDROOT
BRANCH   5  14
HETATM   14  C           1     172.471 186.744 270.356  0.00  0.00     0.311 C 
BRANCH  14  15
HETATM   15  N           1     171.422 186.328 271.248  0.00  0.00     0.087 N 
HETATM   16  H           1     170.854 185.612 270.795  0.00  0.00     0.316 HD
BRANCH  15  17
HETATM   17  C           1     170.607 187.478 271.531  0.00  0.00     0.270 C 
BRANCH  17  18
HETATM   18  C           1     171.101 188.665 270.717  0.00  0.00     0.034 C 
BRANCH  18  19
HETATM   19  C           1     171.385 189.837 271.647  0.00  0.00    -0.010 C 
HETATM   20  C           1     172.546 189.475 272.569  0.00  0.00     0.035 C 
HETATM   21  C           1     173.000 190.681 273.389  0.00  0.00     0.273 C 
HETATM   22  N           1     173.344 191.814 272.530  0.00  0.00     0.093 N 
HETATM   23  C           1     172.211 192.218 271.696  0.00  0.00     0.273 C 
HETATM   24  C           1     171.729 191.068 270.814  0.00  0.00     0.035 C 
BRANCH  22  25
HETATM   25  C           1     173.647 192.907 273.415  0.00  0.00     0.223 C 
HETATM   26  C           1     173.981 192.400 274.810  0.00  0.00     0.036 C 
HETATM   27  C           1     174.943 193.430 275.399  0.00  0.00     0.002 C 
HETATM   28  C           1     175.348 194.348 274.248  0.00  0.00     0.002 C 
HETATM   29  C           1     174.919 193.616 272.986  0.00  0.00     0.036 C 
ENDBRANCH  22  25
ENDBRANCH  18  19
ENDBRANCH  17  18
ENDBRANCH  15  17
ENDBRANCH  14  15
ENDBRANCH   5  14
BRANCH   4  30
HETATM   30  S           1     173.597 185.009 268.147  0.00  0.00    -0.105 SA
BRANCH  30  31
HETATM   31  C           1     174.662 186.253 267.366  0.00  0.00     0.119 C 
BRANCH  31  32
HETATM   32  C           1     173.976 187.584 267.388  0.00  0.00    -0.049 A 
HETATM   33  C           1     172.699 187.719 266.845  0.00  0.00     0.008 A 
HETATM   34  C           1     172.060 188.959 266.866  0.00  0.00     0.001 A 
HETATM   35  C           1     172.699 190.064 267.430  0.00  0.00     0.000 A 
HETATM   36  C           1     173.976 189.928 267.973  0.00  0.00     0.001 A 
HETATM   37  C           1     174.615 188.688 267.952  0.00  0.00     0.008 A 
ENDBRANCH  31  32
ENDBRANCH  30  31
ENDBRANCH   4  30
TORSDOF 9
ENDMDL
MODEL 8
REMARK VINA RESULT:      -8.7      2.413      8.269
REMARK  9 active torsions:
REMARK  status: ('A' for Active; 'I' for Inactive)
REMARK    1  A    between atoms: C_4  and  S_29 
REMARK    2  A    between atoms: C_5  and  C_7 
REMARK    3  A    between atoms: C_7  and  N_8 
REMARK    4  A    between atoms: N_8  and  C_9 
REMARK    5  A    between atoms: C_9  and  C_10 
REMARK    6  A    between atoms: C_10  and  C_11 
REMARK    7  A    between atoms: N_14  and  C_17 
REMARK    8  A    between atoms: S_29  and  C_36 
REMARK    9  A    between atoms: C_30  and  C_36 
ROOT
HETATM    1  C           1     171.025 187.184 289.235  0.00  0.00    -0.008 A 
HETATM    2  C           1     170.512 188.177 288.416  0.00  0.00     0.130 A 
HETATM    3  N           1     170.817 188.303 287.106  0.00  0.00    -0.253 NA
HETATM    4  C           1     171.674 187.392 286.594  0.00  0.00     0.101 A 
HETATM    5  C           1     172.239 186.364 287.332  0.00  0.00     0.006 A 
HETATM    6  C           1     171.904 186.262 288.679  0.00  0.00     0.025 A 
HETATM    7  C           1     170.682 187.115 290.525  0.00  0.00    -0.025 A 
HETATM    8  C           1     171.553 187.593 291.505  0.00  0.00     0.013 A 
HETATM    9  C           1     171.196 187.520 292.851  0.00  0.00     0.007 A 
HETATM   10  C           1     169.969 186.969 293.218  0.00  0.00    -0.062 A 
HETATM   11  C           1     169.097 186.492 292.239  0.00  0.00     0.007 A 
HETATM   12  C           1     169.454 186.564 290.893  0.00  0.00     0.013 A 
HETATM   13  C           1     169.585 186.892 294.663  0.00  0.00     0.048 C 
ENDROOT
BRANCH   5  14
HETATM   14  C           1     173.182 185.391 286.698  0.00  0.00     0.311 C 
BRANCH  14  15
HETATM   15  N           1     174.531 185.712 287.077  0.00  0.00     0.087 N 
HETATM   16  H           1     174.558 186.649 287.479  0.00  0.00     0.316 HD
BRANCH  15  17
HETATM   17  C           1     175.340 185.676 285.889  0.00  0.00     0.270 C 
BRANCH  17  18
HETATM   18  C           1     174.963 184.460 285.053  0.00  0.00     0.034 C 
BRANCH  18  19
HETATM   19  C           1     174.916 184.850 283.582  0.00  0.00    -0.010 C 
HETATM   20  C           1     173.483 184.721 283.075  0.00  0.00     0.035 C 
HETATM   21  C           1     173.342 185.284 281.662  0.00  0.00     0.273 C 
HETATM   22  N           1     173.803 186.671 281.590  0.00  0.00     0.093 N 
HETATM   23  C           1     175.202 186.793 282.001  0.00  0.00     0.273 C 
HETATM   24  C           1     175.411 186.285 283.426  0.00  0.00     0.035 C 
BRANCH  22  25
HETATM   25  C           1     173.721 187.045 280.203  0.00  0.00     0.223 C 
HETATM   26  C           1     175.106 187.135 279.581  0.00  0.00     0.036 C 
HETATM   27  C           1     174.913 186.798 278.103  0.00  0.00     0.002 C 
HETATM   28  C           1     173.489 186.264 277.967  0.00  0.00     0.002 C 
HETATM   29  C           1     173.040 185.959 279.388  0.00  0.00     0.036 C 
ENDBRANCH  22  25
ENDBRANCH  18  19
ENDBRANCH  17  18
ENDBRANCH  15  17
ENDBRANCH  14  15
ENDBRANCH   5  14
BRANCH   4  30
HETATM   30  S           1     172.112 187.524 284.837  0.00  0.00    -0.105 SA
BRANCH  30  31
HETATM   31  C           1     170.903 188.834 284.502  0.00  0.00     0.119 C 
BRANCH  31  32
HETATM   32  C           1     171.426 189.736 283.429  0.00  0.00    -0.049 A 
HETATM   33  C           1     170.655 190.808 282.981  0.00  0.00     0.008 A 
HETATM   34  C           1     171.144 191.648 281.980  0.00  0.00     0.001 A 
HETATM   35  C           1     172.404 191.416 281.427  0.00  0.00     0.000 A 
HETATM   36  C           1     173.174 190.344 281.875  0.00  0.00     0.001 A 
HETATM   37  C           1     172.686 189.503 282.876  0.00  0.00     0.008 A 
ENDBRANCH  31  32
ENDBRANCH  30  31
ENDBRANCH   4  30
TORSDOF 9
ENDMDL
MODEL 9
REMARK VINA RESULT:      -8.4      9.128     15.053
REMARK  9 active torsions:
REMARK  status: ('A' for Active; 'I' for Inactive)
REMARK    1  A    between atoms: C_4  and  S_29 
REMARK    2  A    between atoms: C_5  and  C_7 
REMARK    3  A    between atoms: C_7  and  N_8 
REMARK    4  A    between atoms: N_8  and  C_9 
REMARK    5  A    between atoms: C_9  and  C_10 
REMARK    6  A    between atoms: C_10  and  C_11 
REMARK    7  A    between atoms: N_14  and  C_17 
REMARK    8  A    between atoms: S_29  and  C_36 
REMARK    9  A    between atoms: C_30  and  C_36 
ROOT
HETATM    1  C           1     176.011 183.743 267.683  0.00  0.00    -0.008 A 
HETATM    2  C           1     176.866 184.258 268.644  0.00  0.00     0.130 A 
HETATM    3  N           1     176.515 184.458 269.933  0.00  0.00    -0.253 NA
HETATM    4  C           1     175.250 184.127 270.275  0.00  0.00     0.101 A 
HETATM    5  C           1     174.323 183.606 269.386  0.00  0.00     0.006 A 
HETATM    6  C           1     174.715 183.412 268.066  0.00  0.00     0.025 A 
HETATM    7  C           1     176.420 183.569 266.423  0.00  0.00    -0.025 A 
HETATM    8  C           1     176.064 184.492 265.440  0.00  0.00     0.013 A 
HETATM    9  C           1     176.491 184.310 264.125  0.00  0.00     0.007 A 
HETATM   10  C           1     177.274 183.205 263.792  0.00  0.00    -0.062 A 
HETATM   11  C           1     177.632 182.282 264.775  0.00  0.00     0.007 A 
HETATM   12  C           1     177.204 182.463 266.090  0.00  0.00     0.013 A 
HETATM   13  C           1     177.733 183.011 262.381  0.00  0.00     0.048 C 
ENDROOT
BRANCH   5  14
HETATM   14  C           1     172.937 183.262 269.835  0.00  0.00     0.311 C 
BRANCH  14  15
HETATM   15  N           1     171.986 183.750 268.874  0.00  0.00     0.087 N 
HETATM   16  H           1     172.449 183.886 267.976  0.00  0.00     0.316 HD
BRANCH  15  17
HETATM   17  C           1     171.486 185.010 269.352  0.00  0.00     0.270 C 
BRANCH  17  18
HETATM   18  C           1     171.868 186.113 268.375  0.00  0.00     0.034 C 
BRANCH  18  19
HETATM   19  C           1     172.888 187.038 269.026  0.00  0.00    -0.010 C 
HETATM   20  C           1     172.792 188.420 268.385  0.00  0.00     0.035 C 
HETATM   21  C           1     173.655 189.437 269.131  0.00  0.00     0.273 C 
HETATM   22  N           1     173.312 189.490 270.552  0.00  0.00     0.093 N 
HETATM   23  C           1     173.475 188.185 271.192  0.00  0.00     0.273 C 
HETATM   24  C           1     172.607 187.121 270.523  0.00  0.00     0.035 C 
BRANCH  22  25
HETATM   25  C           1     174.255 190.394 271.154  0.00  0.00     0.223 C 
HETATM   26  C           1     175.514 190.511 270.308  0.00  0.00     0.036 C 
HETATM   27  C           1     176.054 191.915 270.572  0.00  0.00     0.002 C 
HETATM   28  C           1     174.964 192.658 271.342  0.00  0.00     0.002 C 
HETATM   29  C           1     173.712 191.812 271.174  0.00  0.00     0.036 C 
ENDBRANCH  22  25
ENDBRANCH  18  19
ENDBRANCH  17  18
ENDBRANCH  15  17
ENDBRANCH  14  15
ENDBRANCH   5  14
BRANCH   4  30
HETATM   30  S           1     174.736 184.380 271.997  0.00  0.00    -0.105 SA
BRANCH  30  31
HETATM   31  C           1     175.952 185.692 272.302  0.00  0.00     0.119 C 
BRANCH  31  32
HETATM   32  C           1     176.342 185.687 273.747  0.00  0.00    -0.049 A 
HETATM   33  C           1     177.507 186.333 274.158  0.00  0.00     0.008 A 
HETATM   34  C           1     177.870 186.328 275.505  0.00  0.00     0.001 A 
HETATM   35  C           1     177.066 185.677 276.441  0.00  0.00     0.000 A 
HETATM   36  C           1     175.901 185.031 276.030  0.00  0.00     0.001 A 
HETATM   37  C           1     175.538 185.035 274.683  0.00  0.00     0.008 A 
ENDBRANCH  31  32
ENDBRANCH  30  31
ENDBRANCH   4  30
TORSDOF 9
ENDMDL
