MODEL 1
REMARK VINA RESULT:      -8.4      0.000      0.000
REMARK  9 active torsions:
REMARK  status: ('A' for Active; 'I' for Inactive)
REMARK    1  A    between atoms: C_2  and  C_17 
REMARK    2  A    between atoms: C_4  and  S_8 
REMARK    3  A    between atoms: C_5  and  C_7 
REMARK    4  A    between atoms: C_7  and  N_16 
REMARK    5  A    between atoms: S_8  and  C_9 
REMARK    6  A    between atoms: C_9  and  C_10 
REMARK    7  A    between atoms: N_16  and  C_18 
REMARK    8  A    between atoms: C_18  and  C_19 
REMARK    9  A    between atoms: C_19  and  N_20 
ROOT
HETATM    1  C           1     176.164 185.645 273.415  0.00  0.00    -0.024 A 
HETATM    2  C           1     177.360 186.345 273.578  0.00  0.00     0.014 A 
HETATM    3  C           1     177.937 186.455 274.842  0.00  0.00     0.023 A 
HETATM    4  C           1     177.318 185.866 275.945  0.00  0.00     0.044 A 
HETATM    5  C           1     176.121 185.168 275.782  0.00  0.00     0.023 A 
HETATM    6  C           1     175.545 185.057 274.517  0.00  0.00     0.014 A 
HETATM    7  C           1     177.861 185.970 277.136  0.00  0.00     0.099 C 
HETATM    8  N           1     178.339 186.062 278.187  0.00  0.00    -0.191 NA
ENDROOT
BRANCH   1   9
HETATM    9  C           1     175.612 185.540 272.202  0.00  0.00    -0.008 A 
HETATM   10  C           1     174.460 186.240 271.881  0.00  0.00     0.130 A 
HETATM   11  N           1     173.853 186.178 270.676  0.00  0.00    -0.253 NA
HETATM   12  C           1     174.427 185.378 269.751  0.00  0.00     0.101 A 
HETATM   13  C           1     175.578 184.640 269.977  0.00  0.00     0.006 A 
HETATM   14  C           1     176.179 184.724 271.228  0.00  0.00     0.025 A 
BRANCH  12  15
HETATM   15  S           1     173.646 185.265 268.116  0.00  0.00    -0.105 SA
BRANCH  15  16
HETATM   16  C           1     174.596 186.649 267.426  0.00  0.00     0.119 C 
BRANCH  16  17
HETATM   17  C           1     173.729 187.868 267.363  0.00  0.00    -0.049 A 
HETATM   18  C           1     174.191 189.080 267.876  0.00  0.00     0.008 A 
HETATM   19  C           1     173.382 190.215 267.818  0.00  0.00     0.001 A 
HETATM   20  C           1     172.112 190.138 267.247  0.00  0.00     0.000 A 
HETATM   21  C           1     171.650 188.927 266.734  0.00  0.00     0.001 A 
HETATM   22  C           1     172.458 187.791 266.791  0.00  0.00     0.008 A 
ENDBRANCH  16  17
ENDBRANCH  15  16
ENDBRANCH  12  15
BRANCH  13  23
HETATM   23  C           1     176.159 183.774 268.902  0.00  0.00     0.311 C 
BRANCH  23  24
HETATM   24  N           1     177.311 184.421 268.335  0.00  0.00     0.089 N 
HETATM   25  H           1     177.226 185.430 268.453  0.00  0.00     0.316 HD
BRANCH  24  26
HETATM   26  C           1     177.345 184.103 266.933  0.00  0.00     0.300 C 
BRANCH  26  27
HETATM   27  C           1     176.383 182.957 266.648  0.00  0.00     0.302 C 
BRANCH  27  28
HETATM   28  N           1     176.505 182.561 265.271  0.00  0.00     0.093 N 
HETATM   29  C           1     176.712 183.792 264.487  0.00  0.00     0.302 C 
HETATM   30  C           1     177.115 183.514 263.023  0.00  0.00     0.302 C 
HETATM   31  N           1     178.306 182.654 262.907  0.00  0.00     0.087 N 
HETATM   32  C           1     178.419 182.277 261.524  0.00  0.00     0.310 C 
HETATM   33  C           1     178.099 181.423 263.691  0.00  0.00     0.302 C 
HETATM   34  C           1     177.696 181.700 265.155  0.00  0.00     0.302 C 
ENDBRANCH  27  28
ENDBRANCH  26  27
ENDBRANCH  24  26
ENDBRANCH  23  24
ENDBRANCH  13  23
ENDBRANCH   1   9
TORSDOF 9
ENDMDL
MODEL 2
REMARK VINA RESULT:      -8.4      1.343      2.153
REMARK  9 active torsions:
REMARK  status: ('A' for Active; 'I' for Inactive)
REMARK    1  A    between atoms: C_2  and  C_17 
REMARK    2  A    between atoms: C_4  and  S_8 
REMARK    3  A    between atoms: C_5  and  C_7 
REMARK    4  A    between atoms: C_7  and  N_16 
REMARK    5  A    between atoms: S_8  and  C_9 
REMARK    6  A    between atoms: C_9  and  C_10 
REMARK    7  A    between atoms: N_16  and  C_18 
REMARK    8  A    between atoms: C_18  and  C_19 
REMARK    9  A    between atoms: C_19  and  N_20 
ROOT
HETATM    1  C           1     176.123 185.638 273.376  0.00  0.00    -0.024 A 
HETATM    2  C           1     175.532 185.015 274.476  0.00  0.00     0.014 A 
HETATM    3  C           1     176.125 185.109 275.734  0.00  0.00     0.023 A 
HETATM    4  C           1     177.311 185.825 275.893  0.00  0.00     0.044 A 
HETATM    5  C           1     177.903 186.447 274.794  0.00  0.00     0.023 A 
HETATM    6  C           1     177.309 186.354 273.536  0.00  0.00     0.014 A 
HETATM    7  C           1     177.871 185.913 277.078  0.00  0.00     0.099 C 
HETATM    8  N           1     178.365 185.991 278.123  0.00  0.00    -0.191 NA
ENDROOT
BRANCH   1   9
HETATM    9  C           1     175.554 185.548 272.171  0.00  0.00    -0.008 A 
HETATM   10  C           1     174.420 186.283 271.861  0.00  0.00     0.130 A 
HETATM   11  N           1     173.797 186.236 270.664  0.00  0.00    -0.253 NA
HETATM   12  C           1     174.335 185.417 269.734  0.00  0.00     0.101 A 
HETATM   13  C           1     175.465 184.644 269.948  0.00  0.00     0.006 A 
HETATM   14  C           1     176.084 184.713 271.192  0.00  0.00     0.025 A 
BRANCH  12  15
HETATM   15  S           1     173.531 185.324 268.109  0.00  0.00    -0.105 SA
BRANCH  15  16
HETATM   16  C           1     174.571 186.622 267.380  0.00  0.00     0.119 C 
BRANCH  16  17
HETATM   17  C           1     173.839 187.928 267.416  0.00  0.00    -0.049 A 
HETATM   18  C           1     172.551 188.020 266.890  0.00  0.00     0.008 A 
HETATM   19  C           1     171.870 189.237 266.923  0.00  0.00     0.001 A 
HETATM   20  C           1     172.478 190.361 267.481  0.00  0.00     0.000 A 
HETATM   21  C           1     173.766 190.269 268.007  0.00  0.00     0.001 A 
HETATM   22  C           1     174.447 189.052 267.975  0.00  0.00     0.008 A 
ENDBRANCH  16  17
ENDBRANCH  15  16
ENDBRANCH  12  15
BRANCH  13  23
HETATM   23  C           1     176.006 183.758 268.869  0.00  0.00     0.311 C 
BRANCH  23  24
HETATM   24  N           1     177.188 184.353 268.308  0.00  0.00     0.089 N 
HETATM   25  H           1     177.127 185.368 268.383  0.00  0.00     0.316 HD
BRANCH  24  26
HETATM   26  C           1     177.251 183.978 266.921  0.00  0.00     0.300 C 
BRANCH  26  27
HETATM   27  C           1     176.187 182.927 266.630  0.00  0.00     0.302 C 
BRANCH  27  28
HETATM   28  N           1     175.721 183.078 265.278  0.00  0.00     0.093 N 
HETATM   29  C           1     174.252 182.969 265.315  0.00  0.00     0.302 C 
HETATM   30  C           1     173.584 183.364 263.980  0.00  0.00     0.302 C 
HETATM   31  N           1     173.963 184.713 263.524  0.00  0.00     0.087 N 
HETATM   32  C           1     173.480 184.851 262.176  0.00  0.00     0.310 C 
HETATM   33  C           1     175.433 184.822 263.487  0.00  0.00     0.302 C 
HETATM   34  C           1     176.101 184.427 264.821  0.00  0.00     0.302 C 
ENDBRANCH  27  28
ENDBRANCH  26  27
ENDBRANCH  24  26
ENDBRANCH  23  24
ENDBRANCH  13  23
ENDBRANCH   1   9
TORSDOF 9
ENDMDL
MODEL 3
REMARK VINA RESULT:      -8.2      3.190      7.002
REMARK  9 active torsions:
REMARK  status: ('A' for Active; 'I' for Inactive)
REMARK    1  A    between atoms: C_2  and  C_17 
REMARK    2  A    between atoms: C_4  and  S_8 
REMARK    3  A    between atoms: C_5  and  C_7 
REMARK    4  A    between atoms: C_7  and  N_16 
REMARK    5  A    between atoms: S_8  and  C_9 
REMARK    6  A    between atoms: C_9  and  C_10 
REMARK    7  A    between atoms: N_16  and  C_18 
REMARK    8  A    between atoms: C_18  and  C_19 
REMARK    9  A    between atoms: C_19  and  N_20 
ROOT
HETATM    1  C           1     176.020 185.585 273.342  0.00  0.00    -0.024 A 
HETATM    2  C           1     177.230 186.268 273.470  0.00  0.00     0.014 A 
HETATM    3  C           1     177.848 186.365 274.716  0.00  0.00     0.023 A 
HETATM    4  C           1     177.257 185.780 275.835  0.00  0.00     0.044 A 
HETATM    5  C           1     176.047 185.097 275.708  0.00  0.00     0.023 A 
HETATM    6  C           1     175.429 184.999 274.462  0.00  0.00     0.014 A 
HETATM    7  C           1     177.839 185.871 277.009  0.00  0.00     0.099 C 
HETATM    8  N           1     178.352 185.952 278.044  0.00  0.00    -0.191 NA
ENDROOT
BRANCH   1   9
HETATM    9  C           1     175.428 185.492 272.148  0.00  0.00    -0.008 A 
HETATM   10  C           1     176.060 184.864 271.086  0.00  0.00     0.130 A 
HETATM   11  N           1     175.517 184.737 269.856  0.00  0.00    -0.253 NA
HETATM   12  C           1     174.285 185.263 269.682  0.00  0.00     0.101 A 
HETATM   13  C           1     173.573 185.909 270.681  0.00  0.00     0.006 A 
HETATM   14  C           1     174.160 186.024 271.937  0.00  0.00     0.025 A 
BRANCH  12  15
HETATM   15  S           1     173.516 185.115 268.044  0.00  0.00    -0.105 SA
BRANCH  15  16
HETATM   16  C           1     174.612 186.342 267.278  0.00  0.00     0.119 C 
BRANCH  16  17
HETATM   17  C           1     173.990 187.700 267.378  0.00  0.00    -0.049 A 
HETATM   18  C           1     172.690 187.907 266.918  0.00  0.00     0.008 A 
HETATM   19  C           1     172.111 189.174 267.011  0.00  0.00     0.001 A 
HETATM   20  C           1     172.832 190.231 267.565  0.00  0.00     0.000 A 
HETATM   21  C           1     174.132 190.023 268.026  0.00  0.00     0.001 A 
HETATM   22  C           1     174.712 188.758 267.933  0.00  0.00     0.008 A 
ENDBRANCH  16  17
ENDBRANCH  15  16
ENDBRANCH  12  15
BRANCH  13  23
HETATM   23  C           1     172.210 186.467 270.415  0.00  0.00     0.311 C 
BRANCH  23  24
HETATM   24  N           1     172.239 187.896 270.564  0.00  0.00     0.089 N 
HETATM   25  H           1     173.178 188.191 270.834  0.00  0.00     0.316 HD
BRANCH  24  26
HETATM   26  C           1     171.309 188.247 271.602  0.00  0.00     0.300 C 
BRANCH  26  27
HETATM   27  C           1     171.885 189.383 272.439  0.00  0.00     0.302 C 
BRANCH  27  28
HETATM   28  N           1     171.912 188.993 273.822  0.00  0.00     0.093 N 
HETATM   29  C           1     170.997 187.846 273.963  0.00  0.00     0.302 C 
HETATM   30  C           1     171.109 187.150 275.336  0.00  0.00     0.302 C 
HETATM   31  N           1     172.483 186.722 275.654  0.00  0.00     0.087 N 
HETATM   32  C           1     172.489 186.325 277.036  0.00  0.00     0.310 C 
HETATM   33  C           1     173.398 187.869 275.513  0.00  0.00     0.302 C 
HETATM   34  C           1     173.286 188.565 274.140  0.00  0.00     0.302 C 
ENDBRANCH  27  28
ENDBRANCH  26  27
ENDBRANCH  24  26
ENDBRANCH  23  24
ENDBRANCH  13  23
ENDBRANCH   1   9
TORSDOF 9
ENDMDL
MODEL 4
REMARK VINA RESULT:      -8.1      3.270      6.883
REMARK  9 active torsions:
REMARK  status: ('A' for Active; 'I' for Inactive)
REMARK    1  A    between atoms: C_2  and  C_17 
REMARK    2  A    between atoms: C_4  and  S_8 
REMARK    3  A    between atoms: C_5  and  C_7 
REMARK    4  A    between atoms: C_7  and  N_16 
REMARK    5  A    between atoms: S_8  and  C_9 
REMARK    6  A    between atoms: C_9  and  C_10 
REMARK    7  A    between atoms: N_16  and  C_18 
REMARK    8  A    between atoms: C_18  and  C_19 
REMARK    9  A    between atoms: C_19  and  N_20 
ROOT
HETATM    1  C           1     176.008 185.583 273.482  0.00  0.00    -0.024 A 
HETATM    2  C           1     177.227 186.255 273.564  0.00  0.00     0.014 A 
HETATM    3  C           1     177.892 186.349 274.786  0.00  0.00     0.023 A 
HETATM    4  C           1     177.338 185.770 275.927  0.00  0.00     0.044 A 
HETATM    5  C           1     176.118 185.098 275.846  0.00  0.00     0.023 A 
HETATM    6  C           1     175.453 185.004 274.624  0.00  0.00     0.014 A 
HETATM    7  C           1     177.964 185.858 277.079  0.00  0.00     0.099 C 
HETATM    8  N           1     178.515 185.935 278.094  0.00  0.00    -0.191 NA
ENDROOT
BRANCH   1   9
HETATM    9  C           1     175.371 185.494 272.311  0.00  0.00    -0.008 A 
HETATM   10  C           1     176.038 185.085 271.167  0.00  0.00     0.130 A 
HETATM   11  N           1     175.453 184.974 269.954  0.00  0.00    -0.253 NA
HETATM   12  C           1     174.141 185.288 269.885  0.00  0.00     0.101 A 
HETATM   13  C           1     173.389 185.705 270.972  0.00  0.00     0.006 A 
HETATM   14  C           1     174.020 185.810 272.207  0.00  0.00     0.025 A 
BRANCH  12  15
HETATM   15  S           1     173.314 185.152 268.275  0.00  0.00    -0.105 SA
BRANCH  15  16
HETATM   16  C           1     174.458 186.293 267.448  0.00  0.00     0.119 C 
BRANCH  16  17
HETATM   17  C           1     173.884 187.676 267.463  0.00  0.00    -0.049 A 
HETATM   18  C           1     174.612 188.727 268.019  0.00  0.00     0.008 A 
HETATM   19  C           1     174.076 190.015 268.033  0.00  0.00     0.001 A 
HETATM   20  C           1     172.812 190.251 267.493  0.00  0.00     0.000 A 
HETATM   21  C           1     172.084 189.199 266.938  0.00  0.00     0.001 A 
HETATM   22  C           1     172.619 187.911 266.923  0.00  0.00     0.008 A 
ENDBRANCH  16  17
ENDBRANCH  15  16
ENDBRANCH  12  15
BRANCH  13  23
HETATM   23  C           1     171.937 186.035 270.820  0.00  0.00     0.311 C 
BRANCH  23  24
HETATM   24  N           1     171.652 187.272 271.495  0.00  0.00     0.089 N 
HETATM   25  H           1     170.692 187.258 271.838  0.00  0.00     0.316 HD
BRANCH  24  26
HETATM   26  C           1     171.806 188.336 270.541  0.00  0.00     0.300 C 
BRANCH  26  27
HETATM   27  C           1     171.351 189.649 271.166  0.00  0.00     0.302 C 
BRANCH  27  28
HETATM   28  N           1     172.500 190.454 271.481  0.00  0.00     0.093 N 
HETATM   29  C           1     172.240 191.802 270.945  0.00  0.00     0.302 C 
HETATM   30  C           1     173.267 192.850 271.423  0.00  0.00     0.302 C 
HETATM   31  N           1     173.377 192.920 272.891  0.00  0.00     0.087 N 
HETATM   32  C           1     174.523 193.737 273.187  0.00  0.00     0.310 C 
HETATM   33  C           1     173.637 191.572 273.427  0.00  0.00     0.302 C 
HETATM   34  C           1     172.610 190.524 272.949  0.00  0.00     0.302 C 
ENDBRANCH  27  28
ENDBRANCH  26  27
ENDBRANCH  24  26
ENDBRANCH  23  24
ENDBRANCH  13  23
ENDBRANCH   1   9
TORSDOF 9
ENDMDL
MODEL 5
REMARK VINA RESULT:      -8.0      7.887     12.972
REMARK  9 active torsions:
REMARK  status: ('A' for Active; 'I' for Inactive)
REMARK    1  A    between atoms: C_2  and  C_17 
REMARK    2  A    between atoms: C_4  and  S_8 
REMARK    3  A    between atoms: C_5  and  C_7 
REMARK    4  A    between atoms: C_7  and  N_16 
REMARK    5  A    between atoms: S_8  and  C_9 
REMARK    6  A    between atoms: C_9  and  C_10 
REMARK    7  A    between atoms: N_16  and  C_18 
REMARK    8  A    between atoms: C_18  and  C_19 
REMARK    9  A    between atoms: C_19  and  N_20 
ROOT
HETATM    1  C           1     173.808 186.179 282.203  0.00  0.00    -0.024 A 
HETATM    2  C           1     175.063 185.947 282.767  0.00  0.00     0.014 A 
HETATM    3  C           1     175.186 185.763 284.143  0.00  0.00     0.023 A 
HETATM    4  C           1     174.055 185.810 284.957  0.00  0.00     0.044 A 
HETATM    5  C           1     172.800 186.042 284.394  0.00  0.00     0.023 A 
HETATM    6  C           1     172.676 186.226 283.017  0.00  0.00     0.014 A 
HETATM    7  C           1     174.171 185.636 286.254  0.00  0.00     0.099 C 
HETATM    8  N           1     174.273 185.483 287.397  0.00  0.00    -0.191 NA
ENDROOT
BRANCH   1   9
HETATM    9  C           1     173.690 186.356 280.884  0.00  0.00    -0.008 A 
HETATM   10  C           1     174.742 186.862 280.137  0.00  0.00     0.130 A 
HETATM   11  N           1     174.688 187.065 278.802  0.00  0.00    -0.253 NA
HETATM   12  C           1     173.528 186.744 278.189  0.00  0.00     0.101 A 
HETATM   13  C           1     172.422 186.231 278.849  0.00  0.00     0.006 A 
HETATM   14  C           1     172.508 186.035 280.223  0.00  0.00     0.025 A 
BRANCH  12  15
HETATM   15  S           1     173.410 186.998 276.395  0.00  0.00    -0.105 SA
BRANCH  15  16
HETATM   16  C           1     174.251 185.441 275.992  0.00  0.00     0.119 C 
BRANCH  16  17
HETATM   17  C           1     175.650 185.730 275.543  0.00  0.00    -0.049 A 
HETATM   18  C           1     175.890 186.148 274.235  0.00  0.00     0.008 A 
HETATM   19  C           1     177.195 186.416 273.817  0.00  0.00     0.001 A 
HETATM   20  C           1     178.257 186.266 274.708  0.00  0.00     0.000 A 
HETATM   21  C           1     178.017 185.848 276.016  0.00  0.00     0.001 A 
HETATM   22  C           1     176.713 185.579 276.435  0.00  0.00     0.008 A 
ENDBRANCH  16  17
ENDBRANCH  15  16
ENDBRANCH  12  15
BRANCH  13  23
HETATM   23  C           1     171.168 185.898 278.102  0.00  0.00     0.311 C 
BRANCH  23  24
HETATM   24  N           1     170.064 186.625 278.668  0.00  0.00     0.089 N 
HETATM   25  H           1     169.189 186.172 278.406  0.00  0.00     0.316 HD
BRANCH  24  26
HETATM   26  C           1     170.096 187.957 278.129  0.00  0.00     0.300 C 
BRANCH  26  27
HETATM   27  C           1     169.210 188.867 278.970  0.00  0.00     0.302 C 
BRANCH  27  28
HETATM   28  N           1     169.977 189.995 279.427  0.00  0.00     0.093 N 
HETATM   29  C           1     169.058 190.861 280.186  0.00  0.00     0.302 C 
HETATM   30  C           1     169.784 191.983 280.957  0.00  0.00     0.302 C 
HETATM   31  N           1     170.834 191.475 281.858  0.00  0.00     0.087 N 
HETATM   32  C           1     171.583 192.615 282.314  0.00  0.00     0.310 C 
HETATM   33  C           1     171.754 190.609 281.099  0.00  0.00     0.302 C 
HETATM   34  C           1     171.027 189.487 280.327  0.00  0.00     0.302 C 
ENDBRANCH  27  28
ENDBRANCH  26  27
ENDBRANCH  24  26
ENDBRANCH  23  24
ENDBRANCH  13  23
ENDBRANCH   1   9
TORSDOF 9
ENDMDL
MODEL 6
REMARK VINA RESULT:      -7.8      8.353     13.903
REMARK  9 active torsions:
REMARK  status: ('A' for Active; 'I' for Inactive)
REMARK    1  A    between atoms: C_2  and  C_17 
REMARK    2  A    between atoms: C_4  and  S_8 
REMARK    3  A    between atoms: C_5  and  C_7 
REMARK    4  A    between atoms: C_7  and  N_16 
REMARK    5  A    between atoms: S_8  and  C_9 
REMARK    6  A    between atoms: C_9  and  C_10 
REMARK    7  A    between atoms: N_16  and  C_18 
REMARK    8  A    between atoms: C_18  and  C_19 
REMARK    9  A    between atoms: C_19  and  N_20 
ROOT
HETATM    1  C           1     171.824 190.644 281.971  0.00  0.00    -0.024 A 
HETATM    2  C           1     171.612 191.536 283.023  0.00  0.00     0.014 A 
HETATM    3  C           1     170.758 192.624 282.853  0.00  0.00     0.023 A 
HETATM    4  C           1     170.115 192.823 281.631  0.00  0.00     0.044 A 
HETATM    5  C           1     170.328 191.932 280.579  0.00  0.00     0.023 A 
HETATM    6  C           1     171.181 190.843 280.749  0.00  0.00     0.014 A 
HETATM    7  C           1     169.311 193.849 281.472  0.00  0.00     0.099 C 
HETATM    8  N           1     168.602 194.753 281.330  0.00  0.00    -0.191 NA
ENDROOT
BRANCH   1   9
HETATM    9  C           1     172.643 189.601 282.134  0.00  0.00    -0.008 A 
HETATM   10  C           1     173.342 189.422 283.318  0.00  0.00     0.130 A 
HETATM   11  N           1     174.183 188.390 283.545  0.00  0.00    -0.253 NA
HETATM   12  C           1     174.331 187.498 282.542  0.00  0.00     0.101 A 
HETATM   13  C           1     173.676 187.590 281.325  0.00  0.00     0.006 A 
HETATM   14  C           1     172.817 188.664 281.119  0.00  0.00     0.025 A 
BRANCH  12  15
HETATM   15  S           1     175.452 186.094 282.806  0.00  0.00    -0.105 SA
BRANCH  15  16
HETATM   16  C           1     174.123 184.963 283.306  0.00  0.00     0.119 C 
BRANCH  16  17
HETATM   17  C           1     173.895 185.082 284.781  0.00  0.00    -0.049 A 
HETATM   18  C           1     172.596 185.185 285.279  0.00  0.00     0.008 A 
HETATM   19  C           1     172.384 185.296 286.654  0.00  0.00     0.001 A 
HETATM   20  C           1     173.470 185.304 287.529  0.00  0.00     0.000 A 
HETATM   21  C           1     174.768 185.200 287.031  0.00  0.00     0.001 A 
HETATM   22  C           1     174.981 185.089 285.656  0.00  0.00     0.008 A 
ENDBRANCH  16  17
ENDBRANCH  15  16
ENDBRANCH  12  15
BRANCH  13  23
HETATM   23  C           1     173.888 186.561 280.258  0.00  0.00     0.311 C 
BRANCH  23  24
HETATM   24  N           1     172.656 185.864 280.012  0.00  0.00     0.089 N 
HETATM   25  H           1     172.546 185.116 280.697  0.00  0.00     0.316 HD
BRANCH  24  26
HETATM   26  C           1     172.729 185.298 278.692  0.00  0.00     0.300 C 
BRANCH  26  27
HETATM   27  C           1     173.109 186.384 277.693  0.00  0.00     0.302 C 
BRANCH  27  28
HETATM   28  N           1     174.208 185.929 276.885  0.00  0.00     0.093 N 
HETATM   29  C           1     173.673 185.678 275.535  0.00  0.00     0.302 C 
HETATM   30  C           1     174.777 185.428 274.486  0.00  0.00     0.302 C 
HETATM   31  N           1     175.769 186.516 274.425  0.00  0.00     0.087 N 
HETATM   32  C           1     176.854 186.048 273.604  0.00  0.00     0.310 C 
HETATM   33  C           1     176.305 186.767 275.775  0.00  0.00     0.302 C 
HETATM   34  C           1     175.201 187.017 276.824  0.00  0.00     0.302 C 
ENDBRANCH  27  28
ENDBRANCH  26  27
ENDBRANCH  24  26
ENDBRANCH  23  24
ENDBRANCH  13  23
ENDBRANCH   1   9
TORSDOF 9
ENDMDL
MODEL 7
REMARK VINA RESULT:      -7.8      7.768     11.585
REMARK  9 active torsions:
REMARK  status: ('A' for Active; 'I' for Inactive)
REMARK    1  A    between atoms: C_2  and  C_17 
REMARK    2  A    between atoms: C_4  and  S_8 
REMARK    3  A    between atoms: C_5  and  C_7 
REMARK    4  A    between atoms: C_7  and  N_16 
REMARK    5  A    between atoms: S_8  and  C_9 
REMARK    6  A    between atoms: C_9  and  C_10 
REMARK    7  A    between atoms: N_16  and  C_18 
REMARK    8  A    between atoms: C_18  and  C_19 
REMARK    9  A    between atoms: C_19  and  N_20 
ROOT
HETATM    1  C           1     173.556 185.999 282.144  0.00  0.00    -0.024 A 
HETATM    2  C           1     172.680 186.650 283.014  0.00  0.00     0.014 A 
HETATM    3  C           1     172.744 186.400 284.384  0.00  0.00     0.023 A 
HETATM    4  C           1     173.683 185.499 284.886  0.00  0.00     0.044 A 
HETATM    5  C           1     174.558 184.847 284.016  0.00  0.00     0.023 A 
HETATM    6  C           1     174.495 185.098 282.646  0.00  0.00     0.014 A 
HETATM    7  C           1     173.742 185.263 286.176  0.00  0.00     0.099 C 
HETATM    8  N           1     173.796 185.055 287.314  0.00  0.00    -0.191 NA
ENDROOT
BRANCH   1   9
HETATM    9  C           1     173.494 186.239 280.831  0.00  0.00    -0.008 A 
HETATM   10  C           1     174.598 186.716 280.141  0.00  0.00     0.130 A 
HETATM   11  N           1     174.600 186.978 278.816  0.00  0.00    -0.253 NA
HETATM   12  C           1     173.446 186.752 278.152  0.00  0.00     0.101 A 
HETATM   13  C           1     172.291 186.276 278.753  0.00  0.00     0.006 A 
HETATM   14  C           1     172.319 186.016 280.119  0.00  0.00     0.025 A 
BRANCH  12  15
HETATM   15  S           1     173.405 187.089 276.369  0.00  0.00    -0.105 SA
BRANCH  15  16
HETATM   16  C           1     174.196 185.517 275.924  0.00  0.00     0.119 C 
BRANCH  16  17
HETATM   17  C           1     175.617 185.769 275.523  0.00  0.00    -0.049 A 
HETATM   18  C           1     176.647 185.556 276.438  0.00  0.00     0.008 A 
HETATM   19  C           1     177.971 185.791 276.063  0.00  0.00     0.001 A 
HETATM   20  C           1     178.262 186.239 274.775  0.00  0.00     0.000 A 
HETATM   21  C           1     177.231 186.452 273.861  0.00  0.00     0.001 A 
HETATM   22  C           1     175.908 186.217 274.234  0.00  0.00     0.008 A 
ENDBRANCH  16  17
ENDBRANCH  15  16
ENDBRANCH  12  15
BRANCH  13  23
HETATM   23  C           1     171.046 186.047 277.953  0.00  0.00     0.311 C 
BRANCH  23  24
HETATM   24  N           1     169.934 186.685 278.603  0.00  0.00     0.089 N 
HETATM   25  H           1     169.063 186.336 278.205  0.00  0.00     0.316 HD
BRANCH  24  26
HETATM   26  C           1     170.039 188.099 278.362  0.00  0.00     0.300 C 
BRANCH  26  27
HETATM   27  C           1     169.767 188.386 276.891  0.00  0.00     0.302 C 
BRANCH  27  28
HETATM   28  N           1     170.562 189.507 276.467  0.00  0.00     0.093 N 
HETATM   29  C           1     170.470 189.567 274.997  0.00  0.00     0.302 C 
HETATM   30  C           1     171.060 190.866 274.408  0.00  0.00     0.302 C 
HETATM   31  N           1     170.462 192.083 274.986  0.00  0.00     0.087 N 
HETATM   32  C           1     171.261 193.193 274.542  0.00  0.00     0.310 C 
HETATM   33  C           1     170.554 192.023 276.455  0.00  0.00     0.302 C 
HETATM   34  C           1     169.964 190.724 277.045  0.00  0.00     0.302 C 
ENDBRANCH  27  28
ENDBRANCH  26  27
ENDBRANCH  24  26
ENDBRANCH  23  24
ENDBRANCH  13  23
ENDBRANCH   1   9
TORSDOF 9
ENDMDL
MODEL 8
REMARK VINA RESULT:      -7.7      7.092     11.754
REMARK  9 active torsions:
REMARK  status: ('A' for Active; 'I' for Inactive)
REMARK    1  A    between atoms: C_2  and  C_17 
REMARK    2  A    between atoms: C_4  and  S_8 
REMARK    3  A    between atoms: C_5  and  C_7 
REMARK    4  A    between atoms: C_7  and  N_16 
REMARK    5  A    between atoms: S_8  and  C_9 
REMARK    6  A    between atoms: C_9  and  C_10 
REMARK    7  A    between atoms: N_16  and  C_18 
REMARK    8  A    between atoms: C_18  and  C_19 
REMARK    9  A    between atoms: C_19  and  N_20 
ROOT
HETATM    1  C           1     173.680 185.876 282.340  0.00  0.00    -0.024 A 
HETATM    2  C           1     174.700 185.150 282.955  0.00  0.00     0.014 A 
HETATM    3  C           1     174.655 184.908 284.328  0.00  0.00     0.023 A 
HETATM    4  C           1     173.590 185.393 285.086  0.00  0.00     0.044 A 
HETATM    5  C           1     172.570 186.121 284.471  0.00  0.00     0.023 A 
HETATM    6  C           1     172.615 186.361 283.099  0.00  0.00     0.014 A 
HETATM    7  C           1     173.547 185.166 286.379  0.00  0.00     0.099 C 
HETATM    8  N           1     173.509 184.966 287.519  0.00  0.00    -0.191 NA
ENDROOT
BRANCH   1   9
HETATM    9  C           1     173.724 186.107 281.024  0.00  0.00    -0.008 A 
HETATM   10  C           1     174.748 186.858 280.467  0.00  0.00     0.130 A 
HETATM   11  N           1     174.850 187.127 279.147  0.00  0.00    -0.253 NA
HETATM   12  C           1     173.884 186.621 278.351  0.00  0.00     0.101 A 
HETATM   13  C           1     172.822 185.860 278.813  0.00  0.00     0.006 A 
HETATM   14  C           1     172.744 185.600 280.177  0.00  0.00     0.025 A 
BRANCH  12  15
HETATM   15  S           1     173.982 186.957 276.569  0.00  0.00    -0.105 SA
BRANCH  15  16
HETATM   16  C           1     174.897 185.432 276.203  0.00  0.00     0.119 C 
BRANCH  16  17
HETATM   17  C           1     175.383 185.468 274.788  0.00  0.00    -0.049 A 
HETATM   18  C           1     176.587 186.098 274.480  0.00  0.00     0.008 A 
HETATM   19  C           1     177.039 186.132 273.160  0.00  0.00     0.001 A 
HETATM   20  C           1     176.286 185.535 272.150  0.00  0.00     0.000 A 
HETATM   21  C           1     175.081 184.904 272.458  0.00  0.00     0.001 A 
HETATM   22  C           1     174.629 184.870 273.777  0.00  0.00     0.008 A 
ENDBRANCH  16  17
ENDBRANCH  15  16
ENDBRANCH  12  15
BRANCH  13  23
HETATM   23  C           1     171.787 185.330 277.869  0.00  0.00     0.311 C 
BRANCH  23  24
HETATM   24  N           1     170.547 186.026 278.078  0.00  0.00     0.089 N 
HETATM   25  H           1     169.806 185.350 278.262  0.00  0.00     0.316 HD
BRANCH  24  26
HETATM   26  C           1     170.246 186.753 276.875  0.00  0.00     0.300 C 
BRANCH  26  27
HETATM   27  C           1     168.829 187.307 276.957  0.00  0.00     0.302 C 
BRANCH  27  28
HETATM   28  N           1     168.874 188.744 276.910  0.00  0.00     0.093 N 
HETATM   29  C           1     168.838 189.220 278.304  0.00  0.00     0.302 C 
HETATM   30  C           1     169.135 190.729 278.434  0.00  0.00     0.302 C 
HETATM   31  N           1     170.415 191.118 277.816  0.00  0.00     0.087 N 
HETATM   32  C           1     170.448 192.556 277.788  0.00  0.00     0.310 C 
HETATM   33  C           1     170.451 190.642 276.422  0.00  0.00     0.302 C 
HETATM   34  C           1     170.154 189.133 276.292  0.00  0.00     0.302 C 
ENDBRANCH  27  28
ENDBRANCH  26  27
ENDBRANCH  24  26
ENDBRANCH  23  24
ENDBRANCH  13  23
ENDBRANCH   1   9
TORSDOF 9
ENDMDL
MODEL 9
REMARK VINA RESULT:      -7.6      2.618      9.779
REMARK  9 active torsions:
REMARK  status: ('A' for Active; 'I' for Inactive)
REMARK    1  A    between atoms: C_2  and  C_17 
REMARK    2  A    between atoms: C_4  and  S_8 
REMARK    3  A    between atoms: C_5  and  C_7 
REMARK    4  A    between atoms: C_7  and  N_16 
REMARK    5  A    between atoms: S_8  and  C_9 
REMARK    6  A    between atoms: C_9  and  C_10 
REMARK    7  A    between atoms: N_16  and  C_18 
REMARK    8  A    between atoms: C_18  and  C_19 
REMARK    9  A    between atoms: C_19  and  N_20 
ROOT
HETATM    1  C           1     176.437 183.922 266.237  0.00  0.00    -0.024 A 
HETATM    2  C           1     177.205 182.765 266.100  0.00  0.00     0.014 A 
HETATM    3  C           1     177.607 182.340 264.835  0.00  0.00     0.023 A 
HETATM    4  C           1     177.240 183.070 263.705  0.00  0.00     0.044 A 
HETATM    5  C           1     176.471 184.227 263.841  0.00  0.00     0.023 A 
HETATM    6  C           1     176.070 184.652 265.107  0.00  0.00     0.014 A 
HETATM    7  C           1     177.618 182.670 262.512  0.00  0.00     0.099 C 
HETATM    8  N           1     177.951 182.318 261.461  0.00  0.00    -0.191 NA
ENDROOT
BRANCH   1   9
HETATM    9  C           1     176.052 184.328 267.451  0.00  0.00    -0.008 A 
HETATM   10  C           1     176.124 183.478 268.543  0.00  0.00     0.130 A 
HETATM   11  N           1     175.751 183.827 269.793  0.00  0.00    -0.253 NA
HETATM   12  C           1     175.287 185.085 269.957  0.00  0.00     0.101 A 
HETATM   13  C           1     175.179 186.007 268.928  0.00  0.00     0.006 A 
HETATM   14  C           1     175.570 185.618 267.651  0.00  0.00     0.025 A 
BRANCH  12  15
HETATM   15  S           1     174.777 185.598 271.622  0.00  0.00    -0.105 SA
BRANCH  15  16
HETATM   16  C           1     176.477 185.861 272.200  0.00  0.00     0.119 C 
BRANCH  16  17
HETATM   17  C           1     176.518 185.766 273.694  0.00  0.00    -0.049 A 
HETATM   18  C           1     175.479 185.140 274.381  0.00  0.00     0.008 A 
HETATM   19  C           1     175.517 185.052 275.773  0.00  0.00     0.001 A 
HETATM   20  C           1     176.594 185.590 276.476  0.00  0.00     0.000 A 
HETATM   21  C           1     177.634 186.216 275.789  0.00  0.00     0.001 A 
HETATM   22  C           1     177.596 186.304 274.397  0.00  0.00     0.008 A 
ENDBRANCH  16  17
ENDBRANCH  15  16
ENDBRANCH  12  15
BRANCH  13  23
HETATM   23  C           1     174.656 187.387 269.184  0.00  0.00     0.311 C 
BRANCH  23  24
HETATM   24  N           1     175.301 188.317 268.299  0.00  0.00     0.089 N 
HETATM   25  H           1     176.306 188.311 268.473  0.00  0.00     0.316 HD
BRANCH  24  26
HETATM   26  C           1     174.773 189.625 268.577  0.00  0.00     0.300 C 
BRANCH  26  27
HETATM   27  C           1     175.515 190.231 269.761  0.00  0.00     0.302 C 
BRANCH  27  28
HETATM   28  N           1     174.571 190.850 270.653  0.00  0.00     0.093 N 
HETATM   29  C           1     175.148 192.144 271.057  0.00  0.00     0.302 C 
HETATM   30  C           1     174.144 193.042 271.812  0.00  0.00     0.302 C 
HETATM   31  N           1     172.900 193.275 271.057  0.00  0.00     0.087 N 
HETATM   32  C           1     171.973 193.903 271.959  0.00  0.00     0.310 C 
HETATM   33  C           1     172.323 191.980 270.652  0.00  0.00     0.302 C 
HETATM   34  C           1     173.327 191.082 269.898  0.00  0.00     0.302 C 
ENDBRANCH  27  28
ENDBRANCH  26  27
ENDBRANCH  24  26
ENDBRANCH  23  24
ENDBRANCH  13  23
ENDBRANCH   1   9
TORSDOF 9
ENDMDL
