MODEL 1
REMARK VINA RESULT:      -8.3      0.000      0.000
REMARK  9 active torsions:
REMARK  status: ('A' for Active; 'I' for Inactive)
REMARK    1  A    between atoms: C_2  and  C_17 
REMARK    2  A    between atoms: C_4  and  S_8 
REMARK    3  A    between atoms: C_5  and  C_7 
REMARK    4  A    between atoms: C_7  and  N_16 
REMARK    5  A    between atoms: S_8  and  C_9 
REMARK    6  A    between atoms: C_9  and  C_10 
REMARK    7  A    between atoms: N_16  and  C_18 
REMARK    8  A    between atoms: C_18  and  C_19 
REMARK    9  A    between atoms: C_19  and  N_20 
ROOT
HETATM    1  C           1     173.478 189.090 283.670  0.00  0.00     0.130 A 
HETATM    2  C           1     172.903 189.525 282.488  0.00  0.00    -0.008 A 
HETATM    3  N           1     174.386 188.093 283.742  0.00  0.00    -0.253 NA
HETATM    4  C           1     174.734 187.505 282.576  0.00  0.00     0.101 A 
HETATM    5  C           1     174.214 187.870 281.344  0.00  0.00     0.006 A 
HETATM    6  C           1     173.281 188.900 281.303  0.00  0.00     0.025 A 
ENDROOT
BRANCH   5   7
HETATM    7  C           1     174.646 187.173 280.091  0.00  0.00     0.311 C 
BRANCH   7   8
HETATM    8  N           1     173.560 186.377 279.586  0.00  0.00     0.089 N 
HETATM    9  H           1     173.687 185.407 279.873  0.00  0.00     0.316 HD
BRANCH   8  10
HETATM   10  C           1     173.588 186.460 278.151  0.00  0.00     0.300 C 
BRANCH  10  11
HETATM   11  C           1     174.987 186.847 277.691  0.00  0.00     0.302 C 
BRANCH  11  12
HETATM   12  N           1     175.030 186.875 276.254  0.00  0.00     0.093 N 
HETATM   13  C           1     176.448 186.992 275.868  0.00  0.00     0.302 C 
HETATM   14  C           1     176.681 186.777 274.358  0.00  0.00     0.302 C 
HETATM   15  N           1     176.145 185.494 273.869  0.00  0.00     0.087 N 
HETATM   16  C           1     176.206 185.534 272.433  0.00  0.00     0.310 C 
HETATM   17  C           1     174.728 185.377 274.255  0.00  0.00     0.302 C 
HETATM   18  C           1     174.495 185.591 275.766  0.00  0.00     0.302 C 
ENDBRANCH  11  12
ENDBRANCH  10  11
ENDBRANCH   8  10
ENDBRANCH   7   8
ENDBRANCH   5   7
BRANCH   4  19
HETATM   19  S           1     175.952 186.160 282.625  0.00  0.00    -0.105 SA
BRANCH  19  20
HETATM   20  C           1     174.695 184.857 282.756  0.00  0.00     0.119 C 
BRANCH  20  21
HETATM   21  C           1     174.103 184.870 284.131  0.00  0.00    -0.049 A 
HETATM   22  C           1     172.736 185.087 284.300  0.00  0.00     0.008 A 
HETATM   23  C           1     172.185 185.098 285.582  0.00  0.00     0.001 A 
HETATM   24  C           1     173.001 184.894 286.694  0.00  0.00     0.000 A 
HETATM   25  C           1     174.369 184.677 286.525  0.00  0.00     0.001 A 
HETATM   26  C           1     174.920 184.666 285.244  0.00  0.00     0.008 A 
ENDBRANCH  20  21
ENDBRANCH  19  20
ENDBRANCH   4  19
BRANCH   2  27
HETATM   27  C           1     172.008 190.519 282.483  0.00  0.00    -0.025 A 
HETATM   28  C           1     172.287 191.703 281.801  0.00  0.00     0.013 A 
HETATM   29  C           1     171.355 192.741 281.797  0.00  0.00     0.007 A 
HETATM   30  C           1     170.145 192.595 282.474  0.00  0.00    -0.062 A 
HETATM   31  C           1     169.145 193.708 282.469  0.00  0.00     0.048 C 
HETATM   32  C           1     169.867 191.410 283.156  0.00  0.00     0.007 A 
HETATM   33  C           1     170.799 190.372 283.160  0.00  0.00     0.013 A 
ENDBRANCH   2  27
TORSDOF 9
ENDMDL
MODEL 2
REMARK VINA RESULT:      -8.3      8.284     13.563
REMARK  9 active torsions:
REMARK  status: ('A' for Active; 'I' for Inactive)
REMARK    1  A    between atoms: C_2  and  C_17 
REMARK    2  A    between atoms: C_4  and  S_8 
REMARK    3  A    between atoms: C_5  and  C_7 
REMARK    4  A    between atoms: C_7  and  N_16 
REMARK    5  A    between atoms: S_8  and  C_9 
REMARK    6  A    between atoms: C_9  and  C_10 
REMARK    7  A    between atoms: N_16  and  C_18 
REMARK    8  A    between atoms: C_18  and  C_19 
REMARK    9  A    between atoms: C_19  and  N_20 
ROOT
HETATM    1  C           1     174.477 186.319 271.898  0.00  0.00     0.130 A 
HETATM    2  C           1     175.593 185.569 272.230  0.00  0.00    -0.008 A 
HETATM    3  N           1     173.863 186.263 270.695  0.00  0.00    -0.253 NA
HETATM    4  C           1     174.392 185.415 269.786  0.00  0.00     0.101 A 
HETATM    5  C           1     175.504 184.624 270.024  0.00  0.00     0.006 A 
HETATM    6  C           1     176.114 184.705 271.272  0.00  0.00     0.025 A 
ENDROOT
BRANCH   5   7
HETATM    7  C           1     176.036 183.707 268.967  0.00  0.00     0.311 C 
BRANCH   7   8
HETATM    8  N           1     177.234 184.268 268.403  0.00  0.00     0.089 N 
HETATM    9  H           1     177.274 185.265 268.613  0.00  0.00     0.316 HD
BRANCH   8  10
HETATM   10  C           1     177.175 184.080 266.978  0.00  0.00     0.300 C 
BRANCH  10  11
HETATM   11  C           1     176.235 182.927 266.655  0.00  0.00     0.302 C 
BRANCH  11  12
HETATM   12  N           1     176.416 182.529 265.286  0.00  0.00     0.093 N 
HETATM   13  C           1     176.624 183.760 264.503  0.00  0.00     0.302 C 
HETATM   14  C           1     177.086 183.484 263.057  0.00  0.00     0.302 C 
HETATM   15  N           1     178.299 182.650 262.989  0.00  0.00     0.087 N 
HETATM   16  C           1     178.471 182.270 261.613  0.00  0.00     0.310 C 
HETATM   17  C           1     178.091 181.419 263.772  0.00  0.00     0.302 C 
HETATM   18  C           1     177.629 181.695 265.218  0.00  0.00     0.302 C 
ENDBRANCH  11  12
ENDBRANCH  10  11
ENDBRANCH   8  10
ENDBRANCH   7   8
ENDBRANCH   5   7
BRANCH   4  19
HETATM   19  S           1     173.599 185.306 268.156  0.00  0.00    -0.105 SA
BRANCH  19  20
HETATM   20  C           1     174.570 186.669 267.453  0.00  0.00     0.119 C 
BRANCH  20  21
HETATM   21  C           1     173.728 187.905 267.396  0.00  0.00    -0.049 A 
HETATM   22  C           1     174.204 189.100 267.935  0.00  0.00     0.008 A 
HETATM   23  C           1     173.419 190.251 267.880  0.00  0.00     0.001 A 
HETATM   24  C           1     172.157 190.208 267.288  0.00  0.00     0.000 A 
HETATM   25  C           1     171.681 189.013 266.749  0.00  0.00     0.001 A 
HETATM   26  C           1     172.465 187.862 266.803  0.00  0.00     0.008 A 
ENDBRANCH  20  21
ENDBRANCH  19  20
ENDBRANCH   4  19
BRANCH   2  27
HETATM   27  C           1     176.154 185.671 273.439  0.00  0.00    -0.025 A 
HETATM   28  C           1     177.370 186.339 273.588  0.00  0.00     0.013 A 
HETATM   29  C           1     177.957 186.444 274.849  0.00  0.00     0.007 A 
HETATM   30  C           1     177.329 185.883 275.961  0.00  0.00    -0.062 A 
HETATM   31  C           1     177.958 185.997 277.313  0.00  0.00     0.048 C 
HETATM   32  C           1     176.113 185.215 275.811  0.00  0.00     0.007 A 
HETATM   33  C           1     175.526 185.110 274.550  0.00  0.00     0.013 A 
ENDBRANCH   2  27
TORSDOF 9
ENDMDL
MODEL 3
REMARK VINA RESULT:      -8.3      8.308     13.421
REMARK  9 active torsions:
REMARK  status: ('A' for Active; 'I' for Inactive)
REMARK    1  A    between atoms: C_2  and  C_17 
REMARK    2  A    between atoms: C_4  and  S_8 
REMARK    3  A    between atoms: C_5  and  C_7 
REMARK    4  A    between atoms: C_7  and  N_16 
REMARK    5  A    between atoms: S_8  and  C_9 
REMARK    6  A    between atoms: C_9  and  C_10 
REMARK    7  A    between atoms: N_16  and  C_18 
REMARK    8  A    between atoms: C_18  and  C_19 
REMARK    9  A    between atoms: C_19  and  N_20 
ROOT
HETATM    1  C           1     174.518 186.361 271.906  0.00  0.00     0.130 A 
HETATM    2  C           1     175.614 185.583 272.242  0.00  0.00    -0.008 A 
HETATM    3  N           1     173.897 186.306 270.708  0.00  0.00    -0.253 NA
HETATM    4  C           1     174.394 185.431 269.807  0.00  0.00     0.101 A 
HETATM    5  C           1     175.485 184.611 270.050  0.00  0.00     0.006 A 
HETATM    6  C           1     176.104 184.691 271.293  0.00  0.00     0.025 A 
ENDROOT
BRANCH   5   7
HETATM    7  C           1     175.983 183.664 269.003  0.00  0.00     0.311 C 
BRANCH   7   8
HETATM    8  N           1     177.218 184.158 268.457  0.00  0.00     0.089 N 
HETATM    9  H           1     177.341 185.135 268.724  0.00  0.00     0.316 HD
BRANCH   8  10
HETATM   10  C           1     177.133 184.059 267.025  0.00  0.00     0.300 C 
BRANCH  10  11
HETATM   11  C           1     176.232 182.892 266.648  0.00  0.00     0.302 C 
BRANCH  11  12
HETATM   12  N           1     175.753 183.069 265.304  0.00  0.00     0.093 N 
HETATM   13  C           1     174.282 183.003 265.360  0.00  0.00     0.302 C 
HETATM   14  C           1     173.609 183.429 264.037  0.00  0.00     0.302 C 
HETATM   15  N           1     174.023 184.770 263.588  0.00  0.00     0.087 N 
HETATM   16  C           1     173.527 184.935 262.248  0.00  0.00     0.310 C 
HETATM   17  C           1     175.494 184.836 263.532  0.00  0.00     0.302 C 
HETATM   18  C           1     176.167 184.410 264.855  0.00  0.00     0.302 C 
ENDBRANCH  11  12
ENDBRANCH  10  11
ENDBRANCH   8  10
ENDBRANCH   7   8
ENDBRANCH   5   7
BRANCH   4  19
HETATM   19  S           1     173.589 185.323 268.184  0.00  0.00    -0.105 SA
BRANCH  19  20
HETATM   20  C           1     174.559 186.682 267.472  0.00  0.00     0.119 C 
BRANCH  20  21
HETATM   21  C           1     173.715 187.916 267.403  0.00  0.00    -0.049 A 
HETATM   22  C           1     172.455 187.867 266.806  0.00  0.00     0.008 A 
HETATM   23  C           1     171.669 189.017 266.744  0.00  0.00     0.001 A 
HETATM   24  C           1     172.141 190.216 267.276  0.00  0.00     0.000 A 
HETATM   25  C           1     173.401 190.265 267.873  0.00  0.00     0.001 A 
HETATM   26  C           1     174.188 189.116 267.936  0.00  0.00     0.008 A 
ENDBRANCH  20  21
ENDBRANCH  19  20
ENDBRANCH   4  19
BRANCH   2  27
HETATM   27  C           1     176.186 185.685 273.447  0.00  0.00    -0.025 A 
HETATM   28  C           1     177.402 186.355 273.586  0.00  0.00     0.013 A 
HETATM   29  C           1     177.999 186.460 274.842  0.00  0.00     0.007 A 
HETATM   30  C           1     177.381 185.897 275.959  0.00  0.00    -0.062 A 
HETATM   31  C           1     178.022 186.011 277.306  0.00  0.00     0.048 C 
HETATM   32  C           1     176.165 185.227 275.818  0.00  0.00     0.007 A 
HETATM   33  C           1     175.568 185.121 274.562  0.00  0.00     0.013 A 
ENDBRANCH   2  27
TORSDOF 9
ENDMDL
MODEL 4
REMARK VINA RESULT:      -8.2      7.860     12.470
REMARK  9 active torsions:
REMARK  status: ('A' for Active; 'I' for Inactive)
REMARK    1  A    between atoms: C_2  and  C_17 
REMARK    2  A    between atoms: C_4  and  S_8 
REMARK    3  A    between atoms: C_5  and  C_7 
REMARK    4  A    between atoms: C_7  and  N_16 
REMARK    5  A    between atoms: S_8  and  C_9 
REMARK    6  A    between atoms: C_9  and  C_10 
REMARK    7  A    between atoms: N_16  and  C_18 
REMARK    8  A    between atoms: C_18  and  C_19 
REMARK    9  A    between atoms: C_19  and  N_20 
ROOT
HETATM    1  C           1     175.934 184.763 271.449  0.00  0.00     0.130 A 
HETATM    2  C           1     175.465 185.555 272.484  0.00  0.00    -0.008 A 
HETATM    3  N           1     175.318 184.648 270.252  0.00  0.00    -0.253 NA
HETATM    4  C           1     174.181 185.359 270.085  0.00  0.00     0.101 A 
HETATM    5  C           1     173.634 186.178 271.060  0.00  0.00     0.006 A 
HETATM    6  C           1     174.291 186.276 272.282  0.00  0.00     0.025 A 
ENDROOT
BRANCH   5   7
HETATM    7  C           1     172.370 186.938 270.805  0.00  0.00     0.311 C 
BRANCH   7   8
HETATM    8  N           1     172.644 188.349 270.833  0.00  0.00     0.089 N 
HETATM    9  H           1     173.342 188.546 271.550  0.00  0.00     0.316 HD
BRANCH   8  10
HETATM   10  C           1     171.418 189.027 271.160  0.00  0.00     0.300 C 
BRANCH  10  11
HETATM   11  C           1     171.581 190.520 270.915  0.00  0.00     0.302 C 
BRANCH  11  12
HETATM   12  N           1     172.712 191.008 271.657  0.00  0.00     0.093 N 
HETATM   13  C           1     173.267 192.144 270.899  0.00  0.00     0.302 C 
HETATM   14  C           1     174.328 192.936 271.692  0.00  0.00     0.302 C 
HETATM   15  N           1     173.835 193.412 272.997  0.00  0.00     0.087 N 
HETATM   16  C           1     174.976 193.906 273.721  0.00  0.00     0.310 C 
HETATM   17  C           1     173.281 192.276 273.755  0.00  0.00     0.302 C 
HETATM   18  C           1     172.219 191.484 272.962  0.00  0.00     0.302 C 
ENDBRANCH  11  12
ENDBRANCH  10  11
ENDBRANCH   8  10
ENDBRANCH   7   8
ENDBRANCH   5   7
BRANCH   4  19
HETATM   19  S           1     173.320 185.234 268.492  0.00  0.00    -0.105 SA
BRANCH  19  20
HETATM   20  C           1     174.502 186.306 267.627  0.00  0.00     0.119 C 
BRANCH  20  21
HETATM   21  C           1     173.970 187.705 267.587  0.00  0.00    -0.049 A 
HETATM   22  C           1     172.678 187.948 267.120  0.00  0.00     0.008 A 
HETATM   23  C           1     172.183 189.251 267.084  0.00  0.00     0.001 A 
HETATM   24  C           1     172.979 190.313 267.513  0.00  0.00     0.000 A 
HETATM   25  C           1     174.271 190.070 267.980  0.00  0.00     0.001 A 
HETATM   26  C           1     174.767 188.767 268.016  0.00  0.00     0.008 A 
ENDBRANCH  20  21
ENDBRANCH  19  20
ENDBRANCH   4  19
BRANCH   2  27
HETATM   27  C           1     176.122 185.627 273.647  0.00  0.00    -0.025 A 
HETATM   28  C           1     175.582 185.034 274.789  0.00  0.00     0.013 A 
HETATM   29  C           1     176.266 185.110 276.002  0.00  0.00     0.007 A 
HETATM   30  C           1     177.489 185.778 276.074  0.00  0.00    -0.062 A 
HETATM   31  C           1     178.223 185.858 277.375  0.00  0.00     0.048 C 
HETATM   32  C           1     178.027 186.370 274.931  0.00  0.00     0.007 A 
HETATM   33  C           1     177.343 186.295 273.718  0.00  0.00     0.013 A 
ENDBRANCH   2  27
TORSDOF 9
ENDMDL
MODEL 5
REMARK VINA RESULT:      -8.0      6.821     12.160
REMARK  9 active torsions:
REMARK  status: ('A' for Active; 'I' for Inactive)
REMARK    1  A    between atoms: C_2  and  C_17 
REMARK    2  A    between atoms: C_4  and  S_8 
REMARK    3  A    between atoms: C_5  and  C_7 
REMARK    4  A    between atoms: C_7  and  N_16 
REMARK    5  A    between atoms: S_8  and  C_9 
REMARK    6  A    between atoms: C_9  and  C_10 
REMARK    7  A    between atoms: N_16  and  C_18 
REMARK    8  A    between atoms: C_18  and  C_19 
REMARK    9  A    between atoms: C_19  and  N_20 
ROOT
HETATM    1  C           1     176.082 184.779 271.316  0.00  0.00     0.130 A 
HETATM    2  C           1     175.528 185.531 272.338  0.00  0.00    -0.008 A 
HETATM    3  N           1     175.524 184.648 270.092  0.00  0.00    -0.253 NA
HETATM    4  C           1     174.361 185.301 269.884  0.00  0.00     0.101 A 
HETATM    5  C           1     173.730 186.078 270.843  0.00  0.00     0.006 A 
HETATM    6  C           1     174.329 186.193 272.094  0.00  0.00     0.025 A 
ENDROOT
BRANCH   5   7
HETATM    7  C           1     172.440 186.775 270.542  0.00  0.00     0.311 C 
BRANCH   7   8
HETATM    8  N           1     172.581 188.182 270.805  0.00  0.00     0.089 N 
HETATM    9  H           1     173.522 188.370 271.151  0.00  0.00     0.316 HD
BRANCH   8  10
HETATM   10  C           1     171.620 188.537 271.814  0.00  0.00     0.300 C 
BRANCH  10  11
HETATM   11  C           1     172.247 189.525 272.788  0.00  0.00     0.302 C 
BRANCH  11  12
HETATM   12  N           1     172.159 189.002 274.125  0.00  0.00     0.093 N 
HETATM   13  C           1     171.230 187.859 274.080  0.00  0.00     0.302 C 
HETATM   14  C           1     171.227 187.034 275.384  0.00  0.00     0.302 C 
HETATM   15  N           1     172.569 186.560 275.769  0.00  0.00     0.087 N 
HETATM   16  C           1     172.461 186.031 277.102  0.00  0.00     0.310 C 
HETATM   17  C           1     173.498 187.703 275.814  0.00  0.00     0.302 C 
HETATM   18  C           1     173.501 188.529 274.509  0.00  0.00     0.302 C 
ENDBRANCH  11  12
ENDBRANCH  10  11
ENDBRANCH   8  10
ENDBRANCH   7   8
ENDBRANCH   5   7
BRANCH   4  19
HETATM   19  S           1     173.576 185.154 268.254  0.00  0.00    -0.105 SA
BRANCH  19  20
HETATM   20  C           1     174.698 186.344 267.466  0.00  0.00     0.119 C 
BRANCH  20  21
HETATM   21  C           1     174.081 187.707 267.497  0.00  0.00    -0.049 A 
HETATM   22  C           1     174.800 188.787 268.010  0.00  0.00     0.008 A 
HETATM   23  C           1     174.225 190.057 268.037  0.00  0.00     0.001 A 
HETATM   24  C           1     172.931 190.249 267.553  0.00  0.00     0.000 A 
HETATM   25  C           1     172.212 189.169 267.040  0.00  0.00     0.001 A 
HETATM   26  C           1     172.786 187.898 267.012  0.00  0.00     0.008 A 
ENDBRANCH  20  21
ENDBRANCH  19  20
ENDBRANCH   4  19
BRANCH   2  27
HETATM   27  C           1     176.130 185.621 273.529  0.00  0.00    -0.025 A 
HETATM   28  C           1     177.301 186.369 273.663  0.00  0.00     0.013 A 
HETATM   29  C           1     177.930 186.462 274.904  0.00  0.00     0.007 A 
HETATM   30  C           1     177.389 185.809 276.011  0.00  0.00    -0.062 A 
HETATM   31  C           1     178.063 185.910 277.343  0.00  0.00     0.048 C 
HETATM   32  C           1     176.219 185.061 275.877  0.00  0.00     0.007 A 
HETATM   33  C           1     175.590 184.968 274.635  0.00  0.00     0.013 A 
ENDBRANCH   2  27
TORSDOF 9
ENDMDL
MODEL 6
REMARK VINA RESULT:      -8.0      8.242     12.735
REMARK  9 active torsions:
REMARK  status: ('A' for Active; 'I' for Inactive)
REMARK    1  A    between atoms: C_2  and  C_17 
REMARK    2  A    between atoms: C_4  and  S_8 
REMARK    3  A    between atoms: C_5  and  C_7 
REMARK    4  A    between atoms: C_7  and  N_16 
REMARK    5  A    between atoms: S_8  and  C_9 
REMARK    6  A    between atoms: C_9  and  C_10 
REMARK    7  A    between atoms: N_16  and  C_18 
REMARK    8  A    between atoms: C_18  and  C_19 
REMARK    9  A    between atoms: C_19  and  N_20 
ROOT
HETATM    1  C           1     176.120 184.908 271.215  0.00  0.00     0.130 A 
HETATM    2  C           1     175.499 185.540 272.279  0.00  0.00    -0.008 A 
HETATM    3  N           1     175.566 184.780 269.990  0.00  0.00    -0.253 NA
HETATM    4  C           1     174.335 185.311 269.823  0.00  0.00     0.101 A 
HETATM    5  C           1     173.635 185.962 270.826  0.00  0.00     0.006 A 
HETATM    6  C           1     174.232 186.077 272.077  0.00  0.00     0.025 A 
ENDROOT
BRANCH   5   7
HETATM    7  C           1     172.272 186.527 270.570  0.00  0.00     0.311 C 
BRANCH   7   8
HETATM    8  N           1     171.999 187.570 271.521  0.00  0.00     0.089 N 
HETATM    9  H           1     171.123 187.369 272.004  0.00  0.00     0.316 HD
BRANCH   8  10
HETATM   10  C           1     171.871 188.803 270.792  0.00  0.00     0.300 C 
BRANCH  10  11
HETATM   11  C           1     172.693 189.886 271.477  0.00  0.00     0.302 C 
BRANCH  11  12
HETATM   12  N           1     171.934 191.106 271.527  0.00  0.00     0.093 N 
HETATM   13  C           1     172.837 192.192 271.105  0.00  0.00     0.302 C 
HETATM   14  C           1     172.100 193.527 270.861  0.00  0.00     0.302 C 
HETATM   15  N           1     170.995 193.406 269.894  0.00  0.00     0.087 N 
HETATM   16  C           1     170.254 194.637 269.949  0.00  0.00     0.310 C 
HETATM   17  C           1     170.092 192.320 270.316  0.00  0.00     0.302 C 
HETATM   18  C           1     170.828 190.985 270.560  0.00  0.00     0.302 C 
ENDBRANCH  11  12
ENDBRANCH  10  11
ENDBRANCH   8  10
ENDBRANCH   7   8
ENDBRANCH   5   7
BRANCH   4  19
HETATM   19  S           1     173.553 185.163 268.192  0.00  0.00    -0.105 SA
BRANCH  19  20
HETATM   20  C           1     174.653 186.378 267.414  0.00  0.00     0.119 C 
BRANCH  20  21
HETATM   21  C           1     174.014 187.731 267.460  0.00  0.00    -0.049 A 
HETATM   22  C           1     174.715 188.817 267.984  0.00  0.00     0.008 A 
HETATM   23  C           1     174.119 190.077 268.025  0.00  0.00     0.001 A 
HETATM   24  C           1     172.822 190.253 267.543  0.00  0.00     0.000 A 
HETATM   25  C           1     172.121 189.167 267.019  0.00  0.00     0.001 A 
HETATM   26  C           1     172.716 187.906 266.977  0.00  0.00     0.008 A 
ENDBRANCH  20  21
ENDBRANCH  19  20
ENDBRANCH   4  19
BRANCH   2  27
HETATM   27  C           1     176.102 185.634 273.469  0.00  0.00    -0.025 A 
HETATM   28  C           1     177.319 186.307 273.583  0.00  0.00     0.013 A 
HETATM   29  C           1     177.948 186.405 274.824  0.00  0.00     0.007 A 
HETATM   30  C           1     177.362 185.829 275.951  0.00  0.00    -0.062 A 
HETATM   31  C           1     178.036 185.934 277.282  0.00  0.00     0.048 C 
HETATM   32  C           1     176.145 185.156 275.837  0.00  0.00     0.007 A 
HETATM   33  C           1     175.515 185.059 274.595  0.00  0.00     0.013 A 
ENDBRANCH   2  27
TORSDOF 9
ENDMDL
MODEL 7
REMARK VINA RESULT:      -7.9      8.055     13.849
REMARK  9 active torsions:
REMARK  status: ('A' for Active; 'I' for Inactive)
REMARK    1  A    between atoms: C_2  and  C_17 
REMARK    2  A    between atoms: C_4  and  S_8 
REMARK    3  A    between atoms: C_5  and  C_7 
REMARK    4  A    between atoms: C_7  and  N_16 
REMARK    5  A    between atoms: S_8  and  C_9 
REMARK    6  A    between atoms: C_9  and  C_10 
REMARK    7  A    between atoms: N_16  and  C_18 
REMARK    8  A    between atoms: C_18  and  C_19 
REMARK    9  A    between atoms: C_19  and  N_20 
ROOT
HETATM    1  C           1     176.211 183.599 268.427  0.00  0.00     0.130 A 
HETATM    2  C           1     176.064 184.424 267.324  0.00  0.00    -0.008 A 
HETATM    3  N           1     175.838 183.944 269.678  0.00  0.00    -0.253 NA
HETATM    4  C           1     175.291 185.169 269.831  0.00  0.00     0.101 A 
HETATM    5  C           1     175.101 186.064 268.790  0.00  0.00     0.006 A 
HETATM    6  C           1     175.496 185.680 267.513  0.00  0.00     0.025 A 
ENDROOT
BRANCH   5   7
HETATM    7  C           1     174.487 187.408 269.033  0.00  0.00     0.311 C 
BRANCH   7   8
HETATM    8  N           1     175.185 188.401 268.261  0.00  0.00     0.089 N 
HETATM    9  H           1     176.155 188.112 268.134  0.00  0.00     0.316 HD
BRANCH   8  10
HETATM   10  C           1     175.146 189.634 268.999  0.00  0.00     0.300 C 
BRANCH  10  11
HETATM   11  C           1     175.503 189.369 270.455  0.00  0.00     0.302 C 
BRANCH  11  12
HETATM   12  N           1     174.926 190.390 271.285  0.00  0.00     0.093 N 
HETATM   13  C           1     175.396 191.686 270.763  0.00  0.00     0.302 C 
HETATM   14  C           1     174.662 192.890 271.390  0.00  0.00     0.302 C 
HETATM   15  N           1     173.197 192.808 271.249  0.00  0.00     0.087 N 
HETATM   16  C           1     172.637 193.842 272.076  0.00  0.00     0.310 C 
HETATM   17  C           1     172.727 191.512 271.771  0.00  0.00     0.302 C 
HETATM   18  C           1     173.461 190.308 271.144  0.00  0.00     0.302 C 
ENDBRANCH  11  12
ENDBRANCH  10  11
ENDBRANCH   8  10
ENDBRANCH   7   8
ENDBRANCH   5   7
BRANCH   4  19
HETATM   19  S           1     174.773 185.674 271.496  0.00  0.00    -0.105 SA
BRANCH  19  20
HETATM   20  C           1     176.472 185.894 272.094  0.00  0.00     0.119 C 
BRANCH  20  21
HETATM   21  C           1     176.497 185.769 273.586  0.00  0.00    -0.049 A 
HETATM   22  C           1     177.571 186.284 274.312  0.00  0.00     0.008 A 
HETATM   23  C           1     177.593 186.168 275.702  0.00  0.00     0.001 A 
HETATM   24  C           1     176.542 185.537 276.366  0.00  0.00     0.000 A 
HETATM   25  C           1     175.467 185.023 275.640  0.00  0.00     0.001 A 
HETATM   26  C           1     175.445 185.138 274.251  0.00  0.00     0.008 A 
ENDBRANCH  20  21
ENDBRANCH  19  20
ENDBRANCH   4  19
BRANCH   2  27
HETATM   27  C           1     176.454 184.023 266.109  0.00  0.00    -0.025 A 
HETATM   28  C           1     177.311 182.930 265.978  0.00  0.00     0.013 A 
HETATM   29  C           1     177.719 182.513 264.711  0.00  0.00     0.007 A 
HETATM   30  C           1     177.272 183.188 263.576  0.00  0.00    -0.062 A 
HETATM   31  C           1     177.709 182.740 262.217  0.00  0.00     0.048 C 
HETATM   32  C           1     176.415 184.281 263.708  0.00  0.00     0.007 A 
HETATM   33  C           1     176.007 184.699 264.975  0.00  0.00     0.013 A 
ENDBRANCH   2  27
TORSDOF 9
ENDMDL
MODEL 8
REMARK VINA RESULT:      -7.8      7.726     13.563
REMARK  9 active torsions:
REMARK  status: ('A' for Active; 'I' for Inactive)
REMARK    1  A    between atoms: C_2  and  C_17 
REMARK    2  A    between atoms: C_4  and  S_8 
REMARK    3  A    between atoms: C_5  and  C_7 
REMARK    4  A    between atoms: C_7  and  N_16 
REMARK    5  A    between atoms: S_8  and  C_9 
REMARK    6  A    between atoms: C_9  and  C_10 
REMARK    7  A    between atoms: N_16  and  C_18 
REMARK    8  A    between atoms: C_18  and  C_19 
REMARK    9  A    between atoms: C_19  and  N_20 
ROOT
HETATM    1  C           1     175.915 184.104 271.307  0.00  0.00     0.130 A 
HETATM    2  C           1     175.770 185.348 271.898  0.00  0.00    -0.008 A 
HETATM    3  N           1     175.566 183.833 270.031  0.00  0.00    -0.253 NA
HETATM    4  C           1     175.050 184.854 269.314  0.00  0.00     0.101 A 
HETATM    5  C           1     174.866 186.133 269.816  0.00  0.00     0.006 A 
HETATM    6  C           1     175.235 186.381 271.134  0.00  0.00     0.025 A 
ENDROOT
BRANCH   5   7
HETATM    7  C           1     174.287 187.219 268.963  0.00  0.00     0.311 C 
BRANCH   7   8
HETATM    8  N           1     175.350 188.030 268.432  0.00  0.00     0.089 N 
HETATM    9  H           1     176.208 187.848 268.951  0.00  0.00     0.316 HD
BRANCH   8  10
HETATM   10  C           1     174.972 189.408 268.599  0.00  0.00     0.300 C 
BRANCH  10  11
HETATM   11  C           1     175.499 189.921 269.932  0.00  0.00     0.302 C 
BRANCH  11  12
HETATM   12  N           1     174.534 190.811 270.520  0.00  0.00     0.093 N 
HETATM   13  C           1     174.021 190.148 271.732  0.00  0.00     0.302 C 
HETATM   14  C           1     173.165 191.084 272.613  0.00  0.00     0.302 C 
HETATM   15  N           1     173.869 192.321 272.992  0.00  0.00     0.087 N 
HETATM   16  C           1     172.893 193.194 273.587  0.00  0.00     0.310 C 
HETATM   17  C           1     174.383 192.984 271.779  0.00  0.00     0.302 C 
HETATM   18  C           1     175.239 192.049 270.899  0.00  0.00     0.302 C 
ENDBRANCH  11  12
ENDBRANCH  10  11
ENDBRANCH   8  10
ENDBRANCH   7   8
ENDBRANCH   5   7
BRANCH   4  19
HETATM   19  S           1     174.567 184.535 267.593  0.00  0.00    -0.105 SA
BRANCH  19  20
HETATM   20  C           1     176.173 185.042 266.916  0.00  0.00     0.119 C 
BRANCH  20  21
HETATM   21  C           1     176.495 184.207 265.716  0.00  0.00    -0.049 A 
HETATM   22  C           1     176.073 184.613 264.450  0.00  0.00     0.008 A 
HETATM   23  C           1     176.374 183.835 263.332  0.00  0.00     0.001 A 
HETATM   24  C           1     177.096 182.651 263.480  0.00  0.00     0.000 A 
HETATM   25  C           1     177.518 182.245 264.746  0.00  0.00     0.001 A 
HETATM   26  C           1     177.217 183.022 265.864  0.00  0.00     0.008 A 
ENDBRANCH  20  21
ENDBRANCH  19  20
ENDBRANCH   4  19
BRANCH   2  27
HETATM   27  C           1     176.136 185.553 273.168  0.00  0.00    -0.025 A 
HETATM   28  C           1     175.373 185.019 274.206  0.00  0.00     0.013 A 
HETATM   29  C           1     175.753 185.233 275.531  0.00  0.00     0.007 A 
HETATM   30  C           1     176.894 185.981 275.818  0.00  0.00    -0.062 A 
HETATM   31  C           1     177.302 186.210 277.239  0.00  0.00     0.048 C 
HETATM   32  C           1     177.656 186.516 274.779  0.00  0.00     0.007 A 
HETATM   33  C           1     177.276 186.301 273.453  0.00  0.00     0.013 A 
ENDBRANCH   2  27
TORSDOF 9
ENDMDL
MODEL 9
REMARK VINA RESULT:      -7.6      7.474     13.268
REMARK  9 active torsions:
REMARK  status: ('A' for Active; 'I' for Inactive)
REMARK    1  A    between atoms: C_2  and  C_17 
REMARK    2  A    between atoms: C_4  and  S_8 
REMARK    3  A    between atoms: C_5  and  C_7 
REMARK    4  A    between atoms: C_7  and  N_16 
REMARK    5  A    between atoms: S_8  and  C_9 
REMARK    6  A    between atoms: C_9  and  C_10 
REMARK    7  A    between atoms: N_16  and  C_18 
REMARK    8  A    between atoms: C_18  and  C_19 
REMARK    9  A    between atoms: C_19  and  N_20 
ROOT
HETATM    1  C           1     175.184 184.600 271.784  0.00  0.00     0.130 A 
HETATM    2  C           1     175.590 185.780 272.386  0.00  0.00    -0.008 A 
HETATM    3  N           1     174.555 184.543 270.590  0.00  0.00    -0.253 NA
HETATM    4  C           1     174.323 185.720 269.971  0.00  0.00     0.101 A 
HETATM    5  C           1     174.691 186.951 270.492  0.00  0.00     0.006 A 
HETATM    6  C           1     175.337 186.977 271.723  0.00  0.00     0.025 A 
ENDROOT
BRANCH   5   7
HETATM    7  C           1     174.401 188.218 269.749  0.00  0.00     0.311 C 
BRANCH   7   8
HETATM    8  N           1     175.368 189.219 270.112  0.00  0.00     0.089 N 
HETATM    9  H           1     175.396 189.312 271.128  0.00  0.00     0.316 HD
BRANCH   8  10
HETATM   10  C           1     174.948 190.464 269.529  0.00  0.00     0.300 C 
BRANCH  10  11
HETATM   11  C           1     173.811 191.054 270.351  0.00  0.00     0.302 C 
BRANCH  11  12
HETATM   12  N           1     174.291 191.392 271.663  0.00  0.00     0.093 N 
HETATM   13  C           1     174.287 192.863 271.756  0.00  0.00     0.302 C 
HETATM   14  C           1     174.534 193.376 273.191  0.00  0.00     0.302 C 
HETATM   15  N           1     173.586 192.821 274.172  0.00  0.00     0.087 N 
HETATM   16  C           1     174.075 193.178 275.477  0.00  0.00     0.310 C 
HETATM   17  C           1     173.590 191.350 274.079  0.00  0.00     0.302 C 
HETATM   18  C           1     173.343 190.836 272.644  0.00  0.00     0.302 C 
ENDBRANCH  11  12
ENDBRANCH  10  11
ENDBRANCH   8  10
ENDBRANCH   7   8
ENDBRANCH   5   7
BRANCH   4  19
HETATM   19  S           1     173.480 185.691 268.364  0.00  0.00    -0.105 SA
BRANCH  19  20
HETATM   20  C           1     175.022 185.561 267.415  0.00  0.00     0.119 C 
BRANCH  20  21
HETATM   21  C           1     174.702 185.314 265.974  0.00  0.00    -0.049 A 
HETATM   22  C           1     175.691 184.840 265.111  0.00  0.00     0.008 A 
HETATM   23  C           1     175.392 184.610 263.769  0.00  0.00     0.001 A 
HETATM   24  C           1     174.106 184.854 263.287  0.00  0.00     0.000 A 
HETATM   25  C           1     173.118 185.328 264.150  0.00  0.00     0.001 A 
HETATM   26  C           1     173.415 185.559 265.493  0.00  0.00     0.008 A 
ENDBRANCH  20  21
ENDBRANCH  19  20
ENDBRANCH   4  19
BRANCH   2  27
HETATM   27  C           1     176.210 185.769 273.571  0.00  0.00    -0.025 A 
HETATM   28  C           1     175.604 185.156 274.668  0.00  0.00     0.013 A 
HETATM   29  C           1     176.249 185.146 275.905  0.00  0.00     0.007 A 
HETATM   30  C           1     177.499 185.749 276.044  0.00  0.00    -0.062 A 
HETATM   31  C           1     178.192 185.737 277.371  0.00  0.00     0.048 C 
HETATM   32  C           1     178.104 186.362 274.947  0.00  0.00     0.007 A 
HETATM   33  C           1     177.459 186.372 273.710  0.00  0.00     0.013 A 
ENDBRANCH   2  27
TORSDOF 9
ENDMDL
