MODEL 1
REMARK VINA RESULT:      -7.0      0.000      0.000
REMARK  10 active torsions:
REMARK  status: ('A' for Active; 'I' for Inactive)
REMARK    1  A    between atoms: C_4  and  S_26 
REMARK    2  A    between atoms: C_5  and  C_7 
REMARK    3  A    between atoms: C_7  and  N_8 
REMARK    4  A    between atoms: N_8  and  C_9 
REMARK    5  A    between atoms: C_9  and  C_10 
REMARK    6  A    between atoms: C_10  and  C_11 
REMARK    7  A    between atoms: N_14  and  C_17 
REMARK    8  A    between atoms: C_22  and  O_34 
REMARK    9  A    between atoms: S_26  and  C_33 
REMARK   10  A    between atoms: C_27  and  C_33 
ROOT
HETATM    1  C           1     175.122 185.155 271.751  0.00  0.00    -0.008 A 
HETATM    2  C           1     176.074 185.016 270.754  0.00  0.00     0.130 A 
HETATM    3  N           1     175.776 184.780 269.458  0.00  0.00    -0.253 NA
HETATM    4  C           1     174.466 184.677 269.147  0.00  0.00     0.101 A 
HETATM    5  C           1     173.441 184.801 270.073  0.00  0.00     0.006 A 
HETATM    6  C           1     173.779 185.044 271.400  0.00  0.00     0.025 A 
HETATM    7  C           1     175.482 185.388 273.017  0.00  0.00    -0.021 A 
HETATM    8  C           1     176.761 185.864 273.301  0.00  0.00     0.057 A 
HETATM    9  C           1     177.138 186.107 274.622  0.00  0.00     0.150 A 
HETATM   10  C           1     176.233 185.875 275.660  0.00  0.00     0.106 A 
HETATM   11  C           1     174.953 185.399 275.375  0.00  0.00     0.041 A 
HETATM   12  C           1     174.578 185.155 274.054  0.00  0.00     0.015 A 
HETATM   13  F           1     178.348 186.558 274.892  0.00  0.00    -0.203 F 
ENDROOT
BRANCH   5  14
HETATM   14  C           1     172.010 184.676 269.655  0.00  0.00     0.308 C 
BRANCH  14  15
HETATM   15  N           1     171.182 185.441 270.548  0.00  0.00     0.087 N 
HETATM   16  H           1     170.249 185.029 270.585  0.00  0.00     0.316 HD
BRANCH  15  17
HETATM   17  C           1     171.093 186.778 270.023  0.00  0.00     0.270 C 
BRANCH  17  18
HETATM   18  C           1     171.198 187.780 271.166  0.00  0.00     0.034 C 
BRANCH  18  19
HETATM   19  C           1     172.258 188.821 270.833  0.00  0.00    -0.010 C 
HETATM   20  C           1     171.614 190.204 270.815  0.00  0.00     0.035 C 
HETATM   21  C           1     172.667 191.303 270.680  0.00  0.00     0.272 C 
HETATM   22  N           1     173.680 191.208 271.731  0.00  0.00     0.088 N 
HETATM   23  C           1     174.357 189.910 271.705  0.00  0.00     0.272 C 
HETATM   24  C           1     173.366 188.760 271.879  0.00  0.00     0.035 C 
BRANCH  22  25
HETATM   25  C           1     174.659 192.217 271.431  0.00  0.00     0.268 C 
HETATM   26  C           1     175.731 191.632 270.521  0.00  0.00     0.037 C 
ENDBRANCH  22  25
ENDBRANCH  18  19
ENDBRANCH  17  18
ENDBRANCH  15  17
ENDBRANCH  14  15
ENDBRANCH   5  14
BRANCH   4  27
HETATM   27  S           1     174.020 184.360 267.417  0.00  0.00    -0.105 SA
BRANCH  27  28
HETATM   28  C           1     174.885 185.828 266.792  0.00  0.00     0.122 C 
BRANCH  28  29
HETATM   29  C           1     174.004 187.029 266.942  0.00  0.00    -0.049 A 
HETATM   30  C           1     174.491 188.177 267.567  0.00  0.00     0.008 A 
HETATM   31  C           1     173.670 189.297 267.707  0.00  0.00     0.001 A 
HETATM   32  C           1     172.363 189.268 267.221  0.00  0.00     0.000 A 
HETATM   33  C           1     171.877 188.121 266.596  0.00  0.00     0.001 A 
HETATM   34  C           1     172.697 187.001 266.456  0.00  0.00     0.008 A 
ENDBRANCH  28  29
ENDBRANCH  27  28
ENDBRANCH   4  27
BRANCH  10  35
HETATM   35  O           1     176.599 186.112 276.942  0.00  0.00    -0.353 OA
HETATM   36  C           1     175.561 186.736 277.649  0.00  0.00     0.210 C 
ENDBRANCH  10  35
TORSDOF 10
ENDMDL
MODEL 2
REMARK VINA RESULT:      -6.9      7.633     12.538
REMARK  10 active torsions:
REMARK  status: ('A' for Active; 'I' for Inactive)
REMARK    1  A    between atoms: C_4  and  S_26 
REMARK    2  A    between atoms: C_5  and  C_7 
REMARK    3  A    between atoms: C_7  and  N_8 
REMARK    4  A    between atoms: N_8  and  C_9 
REMARK    5  A    between atoms: C_9  and  C_10 
REMARK    6  A    between atoms: C_10  and  C_11 
REMARK    7  A    between atoms: N_14  and  C_17 
REMARK    8  A    between atoms: C_22  and  O_34 
REMARK    9  A    between atoms: S_26  and  C_33 
REMARK   10  A    between atoms: C_27  and  C_33 
ROOT
HETATM    1  C           1     172.304 189.446 282.271  0.00  0.00    -0.008 A 
HETATM    2  C           1     173.172 189.317 283.343  0.00  0.00     0.130 A 
HETATM    3  N           1     174.111 188.351 283.438  0.00  0.00    -0.253 NA
HETATM    4  C           1     174.183 187.474 282.413  0.00  0.00     0.101 A 
HETATM    5  C           1     173.359 187.521 281.299  0.00  0.00     0.006 A 
HETATM    6  C           1     172.402 188.528 281.229  0.00  0.00     0.025 A 
HETATM    7  C           1     171.395 190.426 282.237  0.00  0.00    -0.021 A 
HETATM    8  C           1     171.538 191.538 283.065  0.00  0.00     0.057 A 
HETATM    9  C           1     170.590 192.561 283.030  0.00  0.00     0.150 A 
HETATM   10  C           1     169.499 192.472 282.165  0.00  0.00     0.106 A 
HETATM   11  C           1     169.355 191.358 281.337  0.00  0.00     0.041 A 
HETATM   12  C           1     170.304 190.336 281.373  0.00  0.00     0.015 A 
HETATM   13  F           1     170.726 193.614 283.814  0.00  0.00    -0.203 F 
ENDROOT
BRANCH   5  14
HETATM   14  C           1     173.498 186.515 280.199  0.00  0.00     0.308 C 
BRANCH  14  15
HETATM   15  N           1     172.205 185.968 279.884  0.00  0.00     0.087 N 
HETATM   16  H           1     171.915 185.333 280.628  0.00  0.00     0.316 HD
BRANCH  15  17
HETATM   17  C           1     172.329 185.239 278.650  0.00  0.00     0.270 C 
BRANCH  17  18
HETATM   18  C           1     172.588 186.213 277.509  0.00  0.00     0.034 C 
BRANCH  18  19
HETATM   19  C           1     173.836 185.784 276.749  0.00  0.00    -0.010 C 
HETATM   20  C           1     173.526 185.748 275.255  0.00  0.00     0.035 C 
HETATM   21  C           1     174.791 185.514 274.432  0.00  0.00     0.272 C 
HETATM   22  N           1     175.818 186.512 274.733  0.00  0.00     0.088 N 
HETATM   23  C           1     176.178 186.500 276.151  0.00  0.00     0.272 C 
HETATM   24  C           1     174.963 186.771 277.037  0.00  0.00     0.035 C 
BRANCH  22  25
HETATM   25  C           1     176.982 186.122 273.984  0.00  0.00     0.268 C 
HETATM   26  C           1     178.234 186.418 274.799  0.00  0.00     0.037 C 
ENDBRANCH  22  25
ENDBRANCH  18  19
ENDBRANCH  17  18
ENDBRANCH  15  17
ENDBRANCH  14  15
ENDBRANCH   5  14
BRANCH   4  27
HETATM   27  S           1     175.430 186.159 282.499  0.00  0.00    -0.105 SA
BRANCH  27  28
HETATM   28  C           1     174.217 184.855 282.845  0.00  0.00     0.122 C 
BRANCH  28  29
HETATM   29  C           1     173.833 184.900 284.292  0.00  0.00    -0.049 A 
HETATM   30  C           1     172.491 185.014 284.653  0.00  0.00     0.008 A 
HETATM   31  C           1     172.133 185.056 286.002  0.00  0.00     0.001 A 
HETATM   32  C           1     173.118 184.983 286.987  0.00  0.00     0.000 A 
HETATM   33  C           1     174.459 184.868 286.625  0.00  0.00     0.001 A 
HETATM   34  C           1     174.818 184.826 285.277  0.00  0.00     0.008 A 
ENDBRANCH  28  29
ENDBRANCH  27  28
ENDBRANCH   4  27
BRANCH  10  35
HETATM   35  O           1     168.578 193.464 282.131  0.00  0.00    -0.353 OA
HETATM   36  C           1     168.664 194.181 280.929  0.00  0.00     0.210 C 
ENDBRANCH  10  35
TORSDOF 10
ENDMDL
MODEL 3
REMARK VINA RESULT:      -6.8      7.997     12.389
REMARK  10 active torsions:
REMARK  status: ('A' for Active; 'I' for Inactive)
REMARK    1  A    between atoms: C_4  and  S_26 
REMARK    2  A    between atoms: C_5  and  C_7 
REMARK    3  A    between atoms: C_7  and  N_8 
REMARK    4  A    between atoms: N_8  and  C_9 
REMARK    5  A    between atoms: C_9  and  C_10 
REMARK    6  A    between atoms: C_10  and  C_11 
REMARK    7  A    between atoms: N_14  and  C_17 
REMARK    8  A    between atoms: C_22  and  O_34 
REMARK    9  A    between atoms: S_26  and  C_33 
REMARK   10  A    between atoms: C_27  and  C_33 
ROOT
HETATM    1  C           1     171.293 189.168 280.482  0.00  0.00    -0.008 A 
HETATM    2  C           1     170.685 188.820 279.287  0.00  0.00     0.130 A 
HETATM    3  N           1     170.952 187.681 278.611  0.00  0.00    -0.253 NA
HETATM    4  C           1     171.870 186.854 279.156  0.00  0.00     0.101 A 
HETATM    5  C           1     172.531 187.115 280.347  0.00  0.00     0.006 A 
HETATM    6  C           1     172.235 188.295 281.020  0.00  0.00     0.025 A 
HETATM    7  C           1     170.985 190.311 281.103  0.00  0.00    -0.021 A 
HETATM    8  C           1     169.807 190.984 280.779  0.00  0.00     0.057 A 
HETATM    9  C           1     169.485 192.177 281.427  0.00  0.00     0.150 A 
HETATM   10  C           1     170.341 192.697 282.398  0.00  0.00     0.106 A 
HETATM   11  C           1     171.520 192.024 282.721  0.00  0.00     0.041 A 
HETATM   12  C           1     171.841 190.831 282.073  0.00  0.00     0.015 A 
HETATM   13  F           1     168.370 192.813 281.121  0.00  0.00    -0.203 F 
ENDROOT
BRANCH   5  14
HETATM   14  C           1     173.537 186.150 280.893  0.00  0.00     0.308 C 
BRANCH  14  15
HETATM   15  N           1     174.422 186.839 281.794  0.00  0.00     0.087 N 
HETATM   16  H           1     174.934 187.558 281.283  0.00  0.00     0.316 HD
BRANCH  15  17
HETATM   17  C           1     175.348 185.872 282.320  0.00  0.00     0.270 C 
BRANCH  17  18
HETATM   18  C           1     174.590 184.843 283.148  0.00  0.00     0.034 C 
BRANCH  18  19
HETATM   19  C           1     174.213 185.451 284.493  0.00  0.00    -0.010 C 
HETATM   20  C           1     172.697 185.395 284.661  0.00  0.00     0.035 C 
HETATM   21  C           1     172.281 185.812 286.070  0.00  0.00     0.272 C 
HETATM   22  N           1     172.954 185.006 287.089  0.00  0.00     0.088 N 
HETATM   23  C           1     174.410 185.115 286.983  0.00  0.00     0.272 C 
HETATM   24  C           1     174.904 184.672 285.607  0.00  0.00     0.035 C 
BRANCH  22  25
HETATM   25  C           1     172.565 185.562 288.356  0.00  0.00     0.268 C 
HETATM   26  C           1     173.810 185.918 289.159  0.00  0.00     0.037 C 
ENDBRANCH  22  25
ENDBRANCH  18  19
ENDBRANCH  17  18
ENDBRANCH  15  17
ENDBRANCH  14  15
ENDBRANCH   5  14
BRANCH   4  27
HETATM   27  S           1     172.259 185.313 278.282  0.00  0.00    -0.105 SA
BRANCH  27  28
HETATM   28  C           1     172.611 186.145 276.708  0.00  0.00     0.122 C 
BRANCH  28  29
HETATM   29  C           1     174.066 186.004 276.383  0.00  0.00    -0.049 A 
HETATM   30  C           1     175.022 186.628 277.183  0.00  0.00     0.008 A 
HETATM   31  C           1     176.379 186.497 276.880  0.00  0.00     0.001 A 
HETATM   32  C           1     176.776 185.741 275.777  0.00  0.00     0.000 A 
HETATM   33  C           1     175.819 185.117 274.978  0.00  0.00     0.001 A 
HETATM   34  C           1     174.464 185.248 275.280  0.00  0.00     0.008 A 
ENDBRANCH  28  29
ENDBRANCH  27  28
ENDBRANCH   4  27
BRANCH  10  35
HETATM   35  O           1     170.028 193.855 283.026  0.00  0.00    -0.353 OA
HETATM   36  C           1     170.115 193.706 284.418  0.00  0.00     0.210 C 
ENDBRANCH  10  35
TORSDOF 10
ENDMDL
MODEL 4
REMARK VINA RESULT:      -6.7      3.989      7.450
REMARK  10 active torsions:
REMARK  status: ('A' for Active; 'I' for Inactive)
REMARK    1  A    between atoms: C_4  and  S_26 
REMARK    2  A    between atoms: C_5  and  C_7 
REMARK    3  A    between atoms: C_7  and  N_8 
REMARK    4  A    between atoms: N_8  and  C_9 
REMARK    5  A    between atoms: C_9  and  C_10 
REMARK    6  A    between atoms: C_10  and  C_11 
REMARK    7  A    between atoms: N_14  and  C_17 
REMARK    8  A    between atoms: C_22  and  O_34 
REMARK    9  A    between atoms: S_26  and  C_33 
REMARK   10  A    between atoms: C_27  and  C_33 
ROOT
HETATM    1  C           1     176.010 184.475 267.721  0.00  0.00    -0.008 A 
HETATM    2  C           1     176.309 183.979 268.981  0.00  0.00     0.130 A 
HETATM    3  N           1     175.983 184.607 270.132  0.00  0.00    -0.253 NA
HETATM    4  C           1     175.331 185.784 270.016  0.00  0.00     0.101 A 
HETATM    5  C           1     174.989 186.360 268.802  0.00  0.00     0.006 A 
HETATM    6  C           1     175.337 185.690 267.634  0.00  0.00     0.025 A 
HETATM    7  C           1     176.361 183.804 266.619  0.00  0.00    -0.021 A 
HETATM    8  C           1     176.684 182.450 266.700  0.00  0.00     0.057 A 
HETATM    9  C           1     177.049 181.750 265.550  0.00  0.00     0.150 A 
HETATM   10  C           1     177.090 182.404 264.318  0.00  0.00     0.106 A 
HETATM   11  C           1     176.767 183.759 264.237  0.00  0.00     0.041 A 
HETATM   12  C           1     176.402 184.458 265.388  0.00  0.00     0.015 A 
HETATM   13  F           1     177.354 180.468 265.627  0.00  0.00    -0.203 F 
ENDROOT
BRANCH   5  14
HETATM   14  C           1     174.264 187.669 268.750  0.00  0.00     0.308 C 
BRANCH  14  15
HETATM   15  N           1     175.040 188.617 267.995  0.00  0.00     0.087 N 
HETATM   16  H           1     176.028 188.372 268.056  0.00  0.00     0.316 HD
BRANCH  15  17
HETATM   17  C           1     174.831 189.915 268.580  0.00  0.00     0.270 C 
BRANCH  17  18
HETATM   18  C           1     175.556 189.992 269.917  0.00  0.00     0.034 C 
BRANCH  18  19
HETATM   19  C           1     174.744 190.840 270.887  0.00  0.00    -0.010 C 
HETATM   20  C           1     175.377 192.224 270.994  0.00  0.00     0.035 C 
HETATM   21  C           1     174.495 193.176 271.799  0.00  0.00     0.272 C 
HETATM   22  N           1     173.145 193.258 271.241  0.00  0.00     0.088 N 
HETATM   23  C           1     172.500 191.944 271.207  0.00  0.00     0.272 C 
HETATM   24  C           1     173.309 190.947 270.379  0.00  0.00     0.035 C 
BRANCH  22  25
HETATM   25  C           1     172.393 194.089 272.141  0.00  0.00     0.268 C 
HETATM   26  C           1     170.960 193.581 272.226  0.00  0.00     0.037 C 
ENDBRANCH  22  25
ENDBRANCH  18  19
ENDBRANCH  17  18
ENDBRANCH  15  17
ENDBRANCH  14  15
ENDBRANCH   5  14
BRANCH   4  27
HETATM   27  S           1     174.875 186.662 271.536  0.00  0.00    -0.105 SA
BRANCH  27  28
HETATM   28  C           1     174.961 185.175 272.573  0.00  0.00     0.122 C 
BRANCH  28  29
HETATM   29  C           1     175.846 185.438 273.752  0.00  0.00    -0.049 A 
HETATM   30  C           1     175.465 185.000 275.020  0.00  0.00     0.008 A 
HETATM   31  C           1     176.290 185.245 276.119  0.00  0.00     0.001 A 
HETATM   32  C           1     177.495 185.927 275.948  0.00  0.00     0.000 A 
HETATM   33  C           1     177.875 186.363 274.680  0.00  0.00     0.001 A 
HETATM   34  C           1     177.051 186.119 273.581  0.00  0.00     0.008 A 
ENDBRANCH  28  29
ENDBRANCH  27  28
ENDBRANCH   4  27
BRANCH  10  35
HETATM   35  O           1     177.445 181.724 263.202  0.00  0.00    -0.353 OA
HETATM   36  C           1     178.152 182.552 262.319  0.00  0.00     0.210 C 
ENDBRANCH  10  35
TORSDOF 10
ENDMDL
MODEL 5
REMARK VINA RESULT:      -6.7      6.235      9.375
REMARK  10 active torsions:
REMARK  status: ('A' for Active; 'I' for Inactive)
REMARK    1  A    between atoms: C_4  and  S_26 
REMARK    2  A    between atoms: C_5  and  C_7 
REMARK    3  A    between atoms: C_7  and  N_8 
REMARK    4  A    between atoms: N_8  and  C_9 
REMARK    5  A    between atoms: C_9  and  C_10 
REMARK    6  A    between atoms: C_10  and  C_11 
REMARK    7  A    between atoms: N_14  and  C_17 
REMARK    8  A    between atoms: C_22  and  O_34 
REMARK    9  A    between atoms: S_26  and  C_33 
REMARK   10  A    between atoms: C_27  and  C_33 
ROOT
HETATM    1  C           1     173.765 186.303 280.485  0.00  0.00    -0.008 A 
HETATM    2  C           1     174.785 186.660 279.617  0.00  0.00     0.130 A 
HETATM    3  N           1     174.604 186.883 278.297  0.00  0.00    -0.253 NA
HETATM    4  C           1     173.347 186.741 277.825  0.00  0.00     0.101 A 
HETATM    5  C           1     172.263 186.387 278.614  0.00  0.00     0.006 A 
HETATM    6  C           1     172.480 186.165 279.970  0.00  0.00     0.025 A 
HETATM    7  C           1     174.010 186.096 281.783  0.00  0.00    -0.021 A 
HETATM    8  C           1     175.180 186.587 282.359  0.00  0.00     0.057 A 
HETATM    9  C           1     175.435 186.371 283.713  0.00  0.00     0.150 A 
HETATM   10  C           1     174.519 185.664 284.492  0.00  0.00     0.106 A 
HETATM   11  C           1     173.347 185.172 283.916  0.00  0.00     0.041 A 
HETATM   12  C           1     173.093 185.388 282.561  0.00  0.00     0.015 A 
HETATM   13  F           1     176.543 186.837 284.259  0.00  0.00    -0.203 F 
ENDROOT
BRANCH   5  14
HETATM   14  C           1     170.895 186.250 278.022  0.00  0.00     0.308 C 
BRANCH  14  15
HETATM   15  N           1     169.940 186.926 278.859  0.00  0.00     0.087 N 
HETATM   16  H           1     169.145 186.311 279.034  0.00  0.00     0.316 HD
BRANCH  15  17
HETATM   17  C           1     169.494 188.098 278.154  0.00  0.00     0.270 C 
BRANCH  17  18
HETATM   18  C           1     170.517 189.213 278.324  0.00  0.00     0.034 C 
BRANCH  18  19
HETATM   19  C           1     170.256 189.945 279.634  0.00  0.00    -0.010 C 
HETATM   20  C           1     171.403 189.667 280.602  0.00  0.00     0.035 C 
HETATM   21  C           1     171.291 190.530 281.856  0.00  0.00     0.272 C 
HETATM   22  N           1     171.218 191.953 281.523  0.00  0.00     0.088 N 
HETATM   23  C           1     170.074 192.242 280.656  0.00  0.00     0.272 C 
HETATM   24  C           1     170.142 191.441 279.357  0.00  0.00     0.035 C 
BRANCH  22  25
HETATM   25  C           1     171.008 192.642 282.767  0.00  0.00     0.268 C 
HETATM   26  C           1     169.959 191.903 283.588  0.00  0.00     0.037 C 
ENDBRANCH  22  25
ENDBRANCH  18  19
ENDBRANCH  17  18
ENDBRANCH  15  17
ENDBRANCH  14  15
ENDBRANCH   5  14
BRANCH   4  27
HETATM   27  S           1     173.059 187.031 276.058  0.00  0.00    -0.105 SA
BRANCH  27  28
HETATM   28  C           1     173.876 185.496 275.542  0.00  0.00     0.122 C 
BRANCH  28  29
HETATM   29  C           1     175.314 185.774 275.231  0.00  0.00    -0.049 A 
HETATM   30  C           1     176.306 185.416 276.143  0.00  0.00     0.008 A 
HETATM   31  C           1     177.646 185.675 275.853  0.00  0.00     0.001 A 
HETATM   32  C           1     177.993 186.292 274.650  0.00  0.00     0.000 A 
HETATM   33  C           1     177.000 186.649 273.739  0.00  0.00     0.001 A 
HETATM   34  C           1     175.660 186.390 274.028  0.00  0.00     0.008 A 
ENDBRANCH  28  29
ENDBRANCH  27  28
ENDBRANCH   4  27
BRANCH  10  35
HETATM   35  O           1     174.766 185.455 285.807  0.00  0.00    -0.353 OA
HETATM   36  C           1     173.660 184.863 286.434  0.00  0.00     0.210 C 
ENDBRANCH  10  35
TORSDOF 10
ENDMDL
MODEL 6
REMARK VINA RESULT:      -6.6      5.219      8.206
REMARK  10 active torsions:
REMARK  status: ('A' for Active; 'I' for Inactive)
REMARK    1  A    between atoms: C_4  and  S_26 
REMARK    2  A    between atoms: C_5  and  C_7 
REMARK    3  A    between atoms: C_7  and  N_8 
REMARK    4  A    between atoms: N_8  and  C_9 
REMARK    5  A    between atoms: C_9  and  C_10 
REMARK    6  A    between atoms: C_10  and  C_11 
REMARK    7  A    between atoms: N_14  and  C_17 
REMARK    8  A    between atoms: C_22  and  O_34 
REMARK    9  A    between atoms: S_26  and  C_33 
REMARK   10  A    between atoms: C_27  and  C_33 
ROOT
HETATM    1  C           1     176.950 183.496 265.081  0.00  0.00    -0.008 A 
HETATM    2  C           1     176.036 184.444 264.648  0.00  0.00     0.130 A 
HETATM    3  N           1     175.359 185.268 265.476  0.00  0.00    -0.253 NA
HETATM    4  C           1     175.606 185.136 266.797  0.00  0.00     0.101 A 
HETATM    5  C           1     176.501 184.218 267.327  0.00  0.00     0.006 A 
HETATM    6  C           1     177.184 183.383 266.448  0.00  0.00     0.025 A 
HETATM    7  C           1     177.588 182.709 264.209  0.00  0.00    -0.021 A 
HETATM    8  C           1     177.642 183.062 262.861  0.00  0.00     0.057 A 
HETATM    9  C           1     178.309 182.242 261.952  0.00  0.00     0.150 A 
HETATM   10  C           1     178.922 181.067 262.390  0.00  0.00     0.106 A 
HETATM   11  C           1     178.868 180.713 263.738  0.00  0.00     0.041 A 
HETATM   12  C           1     178.201 181.535 264.647  0.00  0.00     0.015 A 
HETATM   13  F           1     178.361 182.576 260.676  0.00  0.00    -0.203 F 
ENDROOT
BRANCH   5  14
HETATM   14  C           1     176.726 184.129 268.804  0.00  0.00     0.308 C 
BRANCH  14  15
HETATM   15  N           1     175.997 183.007 269.332  0.00  0.00     0.087 N 
HETATM   16  H           1     175.091 182.941 268.869  0.00  0.00     0.316 HD
BRANCH  15  17
HETATM   17  C           1     175.801 183.238 270.739  0.00  0.00     0.270 C 
BRANCH  17  18
HETATM   18  C           1     176.167 184.678 271.072  0.00  0.00     0.034 C 
BRANCH  18  19
HETATM   19  C           1     175.909 184.938 272.551  0.00  0.00    -0.010 C 
HETATM   20  C           1     176.539 186.272 272.943  0.00  0.00     0.035 C 
HETATM   21  C           1     176.144 186.675 274.362  0.00  0.00     0.272 C 
HETATM   22  N           1     174.690 186.711 274.524  0.00  0.00     0.088 N 
HETATM   23  C           1     174.086 185.412 274.225  0.00  0.00     0.272 C 
HETATM   24  C           1     174.405 184.963 272.800  0.00  0.00     0.035 C 
BRANCH  22  25
HETATM   25  C           1     174.452 186.993 275.914  0.00  0.00     0.268 C 
HETATM   26  C           1     174.292 185.685 276.678  0.00  0.00     0.037 C 
ENDBRANCH  22  25
ENDBRANCH  18  19
ENDBRANCH  17  18
ENDBRANCH  15  17
ENDBRANCH  14  15
ENDBRANCH   5  14
BRANCH   4  27
HETATM   27  S           1     174.718 186.223 267.947  0.00  0.00    -0.105 SA
BRANCH  27  28
HETATM   28  C           1     173.382 186.584 266.773  0.00  0.00     0.122 C 
BRANCH  28  29
HETATM   29  C           1     172.901 187.988 266.979  0.00  0.00    -0.049 A 
HETATM   30  C           1     171.628 188.358 266.547  0.00  0.00     0.008 A 
HETATM   31  C           1     171.180 189.666 266.739  0.00  0.00     0.001 A 
HETATM   32  C           1     172.006 190.601 267.363  0.00  0.00     0.000 A 
HETATM   33  C           1     173.278 190.230 267.795  0.00  0.00     0.001 A 
HETATM   34  C           1     173.726 188.923 267.604  0.00  0.00     0.008 A 
ENDBRANCH  28  29
ENDBRANCH  27  28
ENDBRANCH   4  27
BRANCH  10  35
HETATM   35  O           1     179.569 180.271 261.506  0.00  0.00    -0.353 OA
HETATM   36  C           1     180.917 180.642 261.395  0.00  0.00     0.210 C 
ENDBRANCH  10  35
TORSDOF 10
ENDMDL
MODEL 7
REMARK VINA RESULT:      -6.5      1.746      2.513
REMARK  10 active torsions:
REMARK  status: ('A' for Active; 'I' for Inactive)
REMARK    1  A    between atoms: C_4  and  S_26 
REMARK    2  A    between atoms: C_5  and  C_7 
REMARK    3  A    between atoms: C_7  and  N_8 
REMARK    4  A    between atoms: N_8  and  C_9 
REMARK    5  A    between atoms: C_9  and  C_10 
REMARK    6  A    between atoms: C_10  and  C_11 
REMARK    7  A    between atoms: N_14  and  C_17 
REMARK    8  A    between atoms: C_22  and  O_34 
REMARK    9  A    between atoms: S_26  and  C_33 
REMARK   10  A    between atoms: C_27  and  C_33 
ROOT
HETATM    1  C           1     175.465 184.897 271.854  0.00  0.00    -0.008 A 
HETATM    2  C           1     176.479 184.901 270.909  0.00  0.00     0.130 A 
HETATM    3  N           1     176.306 184.535 269.620  0.00  0.00    -0.253 NA
HETATM    4  C           1     175.062 184.146 269.263  0.00  0.00     0.101 A 
HETATM    5  C           1     173.986 184.109 270.135  0.00  0.00     0.006 A 
HETATM    6  C           1     174.194 184.492 271.456  0.00  0.00     0.025 A 
HETATM    7  C           1     175.701 185.272 273.116  0.00  0.00    -0.021 A 
HETATM    8  C           1     176.840 186.016 273.420  0.00  0.00     0.057 A 
HETATM    9  C           1     177.086 186.407 274.736  0.00  0.00     0.150 A 
HETATM   10  C           1     176.193 186.054 275.748  0.00  0.00     0.106 A 
HETATM   11  C           1     175.054 185.308 275.444  0.00  0.00     0.041 A 
HETATM   12  C           1     174.809 184.917 274.127  0.00  0.00     0.015 A 
HETATM   13  F           1     178.164 187.113 275.025  0.00  0.00    -0.203 F 
ENDROOT
BRANCH   5  14
HETATM   14  C           1     172.634 183.668 269.668  0.00  0.00     0.308 C 
BRANCH  14  15
HETATM   15  N           1     171.625 184.500 270.266  0.00  0.00     0.087 N 
HETATM   16  H           1     170.814 183.931 270.508  0.00  0.00     0.316 HD
BRANCH  15  17
HETATM   17  C           1     171.244 185.491 269.295  0.00  0.00     0.270 C 
BRANCH  17  18
HETATM   18  C           1     170.948 186.807 270.002  0.00  0.00     0.034 C 
BRANCH  18  19
HETATM   19  C           1     171.532 186.769 271.408  0.00  0.00    -0.010 C 
HETATM   20  C           1     172.632 187.820 271.523  0.00  0.00     0.035 C 
HETATM   21  C           1     173.116 187.960 272.965  0.00  0.00     0.272 C 
HETATM   22  N           1     172.010 188.255 273.876  0.00  0.00     0.088 N 
HETATM   23  C           1     170.985 187.211 273.829  0.00  0.00     0.272 C 
HETATM   24  C           1     170.423 187.044 272.418  0.00  0.00     0.035 C 
BRANCH  22  25
HETATM   25  C           1     172.574 188.254 275.198  0.00  0.00     0.268 C 
HETATM   26  C           1     171.886 187.191 276.044  0.00  0.00     0.037 C 
ENDBRANCH  22  25
ENDBRANCH  18  19
ENDBRANCH  17  18
ENDBRANCH  15  17
ENDBRANCH  14  15
ENDBRANCH   5  14
BRANCH   4  27
HETATM   27  S           1     174.785 183.646 267.541  0.00  0.00    -0.105 SA
BRANCH  27  28
HETATM   28  C           1     175.428 185.196 266.853  0.00  0.00     0.122 C 
BRANCH  28  29
HETATM   29  C           1     174.345 186.231 266.854  0.00  0.00    -0.049 A 
HETATM   30  C           1     173.192 186.034 266.094  0.00  0.00     0.008 A 
HETATM   31  C           1     172.183 186.998 266.096  0.00  0.00     0.001 A 
HETATM   32  C           1     172.327 188.157 266.859  0.00  0.00     0.000 A 
HETATM   33  C           1     173.479 188.353 267.619  0.00  0.00     0.001 A 
HETATM   34  C           1     174.488 187.390 267.618  0.00  0.00     0.008 A 
ENDBRANCH  28  29
ENDBRANCH  27  28
ENDBRANCH   4  27
BRANCH  10  35
HETATM   35  O           1     176.433 186.434 277.026  0.00  0.00    -0.353 OA
HETATM   36  C           1     175.242 186.804 277.667  0.00  0.00     0.210 C 
ENDBRANCH  10  35
TORSDOF 10
ENDMDL
MODEL 8
REMARK VINA RESULT:      -6.5      4.960      9.425
REMARK  10 active torsions:
REMARK  status: ('A' for Active; 'I' for Inactive)
REMARK    1  A    between atoms: C_4  and  S_26 
REMARK    2  A    between atoms: C_5  and  C_7 
REMARK    3  A    between atoms: C_7  and  N_8 
REMARK    4  A    between atoms: N_8  and  C_9 
REMARK    5  A    between atoms: C_9  and  C_10 
REMARK    6  A    between atoms: C_10  and  C_11 
REMARK    7  A    between atoms: N_14  and  C_17 
REMARK    8  A    between atoms: C_22  and  O_34 
REMARK    9  A    between atoms: S_26  and  C_33 
REMARK   10  A    between atoms: C_27  and  C_33 
ROOT
HETATM    1  C           1     174.403 186.255 276.478  0.00  0.00    -0.008 A 
HETATM    2  C           1     175.307 186.857 277.338  0.00  0.00     0.130 A 
HETATM    3  N           1     175.046 187.124 278.637  0.00  0.00    -0.253 NA
HETATM    4  C           1     173.825 186.772 279.094  0.00  0.00     0.101 A 
HETATM    5  C           1     172.854 186.166 278.311  0.00  0.00     0.006 A 
HETATM    6  C           1     173.152 185.904 276.977  0.00  0.00     0.025 A 
HETATM    7  C           1     174.723 186.019 275.202  0.00  0.00    -0.021 A 
HETATM    8  C           1     176.060 186.019 274.807  0.00  0.00     0.057 A 
HETATM    9  C           1     176.394 185.772 273.475  0.00  0.00     0.150 A 
HETATM   10  C           1     175.390 185.524 272.538  0.00  0.00     0.106 A 
HETATM   11  C           1     174.052 185.524 272.933  0.00  0.00     0.041 A 
HETATM   12  C           1     173.719 185.772 274.266  0.00  0.00     0.015 A 
HETATM   13  F           1     177.659 185.771 273.101  0.00  0.00    -0.203 F 
ENDROOT
BRANCH   5  14
HETATM   14  C           1     171.521 185.803 278.886  0.00  0.00     0.308 C 
BRANCH  14  15
HETATM   15  N           1     170.520 185.866 277.854  0.00  0.00     0.087 N 
HETATM   16  H           1     170.952 185.672 276.950  0.00  0.00     0.316 HD
BRANCH  15  17
HETATM   17  C           1     169.981 187.200 277.851  0.00  0.00     0.270 C 
BRANCH  17  18
HETATM   18  C           1     169.491 187.546 276.451  0.00  0.00     0.034 C 
BRANCH  18  19
HETATM   19  C           1     170.681 187.907 275.572  0.00  0.00    -0.010 C 
HETATM   20  C           1     170.275 187.787 274.105  0.00  0.00     0.035 C 
HETATM   21  C           1     171.368 188.324 273.183  0.00  0.00     0.272 C 
HETATM   22  N           1     171.724 189.703 273.520  0.00  0.00     0.088 N 
HETATM   23  C           1     172.189 189.813 274.904  0.00  0.00     0.272 C 
HETATM   24  C           1     171.125 189.330 275.889  0.00  0.00     0.035 C 
BRANCH  22  25
HETATM   25  C           1     172.824 190.050 272.662  0.00  0.00     0.268 C 
HETATM   26  C           1     174.046 189.225 273.042  0.00  0.00     0.037 C 
ENDBRANCH  22  25
ENDBRANCH  18  19
ENDBRANCH  17  18
ENDBRANCH  15  17
ENDBRANCH  14  15
ENDBRANCH   5  14
BRANCH   4  27
HETATM   27  S           1     173.431 187.111 280.832  0.00  0.00    -0.105 SA
BRANCH  27  28
HETATM   28  C           1     174.250 185.612 281.443  0.00  0.00     0.122 C 
BRANCH  28  29
HETATM   29  C           1     173.989 185.462 282.909  0.00  0.00    -0.049 A 
HETATM   30  C           1     172.743 185.803 283.434  0.00  0.00     0.008 A 
HETATM   31  C           1     172.499 185.663 284.801  0.00  0.00     0.001 A 
HETATM   32  C           1     173.502 185.180 285.642  0.00  0.00     0.000 A 
HETATM   33  C           1     174.747 184.837 285.117  0.00  0.00     0.001 A 
HETATM   34  C           1     174.991 184.978 283.750  0.00  0.00     0.008 A 
ENDBRANCH  28  29
ENDBRANCH  27  28
ENDBRANCH   4  27
BRANCH  10  35
HETATM   35  O           1     175.714 185.284 271.245  0.00  0.00    -0.353 OA
HETATM   36  C           1     175.105 186.220 270.398  0.00  0.00     0.210 C 
ENDBRANCH  10  35
TORSDOF 10
ENDMDL
MODEL 9
REMARK VINA RESULT:      -6.5     10.162     13.923
REMARK  10 active torsions:
REMARK  status: ('A' for Active; 'I' for Inactive)
REMARK    1  A    between atoms: C_4  and  S_26 
REMARK    2  A    between atoms: C_5  and  C_7 
REMARK    3  A    between atoms: C_7  and  N_8 
REMARK    4  A    between atoms: N_8  and  C_9 
REMARK    5  A    between atoms: C_9  and  C_10 
REMARK    6  A    between atoms: C_10  and  C_11 
REMARK    7  A    between atoms: N_14  and  C_17 
REMARK    8  A    between atoms: C_22  and  O_34 
REMARK    9  A    between atoms: S_26  and  C_33 
REMARK   10  A    between atoms: C_27  and  C_33 
ROOT
HETATM    1  C           1     173.457 186.879 285.931  0.00  0.00    -0.008 A 
HETATM    2  C           1     174.403 186.081 285.309  0.00  0.00     0.130 A 
HETATM    3  N           1     174.669 186.124 283.985  0.00  0.00    -0.253 NA
HETATM    4  C           1     173.953 187.004 283.252  0.00  0.00     0.101 A 
HETATM    5  C           1     172.986 187.844 283.783  0.00  0.00     0.006 A 
HETATM    6  C           1     172.735 187.777 285.150  0.00  0.00     0.025 A 
HETATM    7  C           1     173.241 186.789 287.248  0.00  0.00    -0.021 A 
HETATM    8  C           1     174.192 186.186 288.070  0.00  0.00     0.057 A 
HETATM    9  C           1     173.967 186.092 289.443  0.00  0.00     0.150 A 
HETATM   10  C           1     172.791 186.601 289.995  0.00  0.00     0.106 A 
HETATM   11  C           1     171.839 187.204 289.172  0.00  0.00     0.041 A 
HETATM   12  C           1     172.065 187.297 287.798  0.00  0.00     0.015 A 
HETATM   13  F           1     174.868 185.522 290.222  0.00  0.00    -0.203 F 
ENDROOT
BRANCH   5  14
HETATM   14  C           1     172.232 188.797 282.909  0.00  0.00     0.308 C 
BRANCH  14  15
HETATM   15  N           1     172.732 190.130 283.112  0.00  0.00     0.087 N 
HETATM   16  H           1     172.501 190.439 284.057  0.00  0.00     0.316 HD
BRANCH  15  17
HETATM   17  C           1     172.086 190.989 282.155  0.00  0.00     0.270 C 
BRANCH  17  18
HETATM   18  C           1     170.613 190.615 282.052  0.00  0.00     0.034 C 
BRANCH  18  19
HETATM   19  C           1     169.778 191.623 282.831  0.00  0.00    -0.010 C 
HETATM   20  C           1     169.309 190.985 284.136  0.00  0.00     0.035 C 
HETATM   21  C           1     168.635 192.011 285.043  0.00  0.00     0.272 C 
HETATM   22  N           1     169.509 193.156 285.301  0.00  0.00     0.088 N 
HETATM   23  C           1     169.901 193.821 284.058  0.00  0.00     0.272 C 
HETATM   24  C           1     170.623 192.861 283.114  0.00  0.00     0.035 C 
BRANCH  22  25
HETATM   25  C           1     168.727 194.088 286.068  0.00  0.00     0.268 C 
HETATM   26  C           1     169.384 195.462 286.021  0.00  0.00     0.037 C 
ENDBRANCH  22  25
ENDBRANCH  18  19
ENDBRANCH  17  18
ENDBRANCH  15  17
ENDBRANCH  14  15
ENDBRANCH   5  14
BRANCH   4  27
HETATM   27  S           1     174.277 187.095 281.469  0.00  0.00    -0.105 SA
BRANCH  27  28
HETATM   28  C           1     173.038 185.837 281.051  0.00  0.00     0.122 C 
BRANCH  28  29
HETATM   29  C           1     172.362 186.208 279.767  0.00  0.00    -0.049 A 
HETATM   30  C           1     172.374 185.321 278.691  0.00  0.00     0.008 A 
HETATM   31  C           1     171.744 185.667 277.495  0.00  0.00     0.001 A 
HETATM   32  C           1     171.101 186.899 277.376  0.00  0.00     0.000 A 
HETATM   33  C           1     171.088 187.785 278.452  0.00  0.00     0.001 A 
HETATM   34  C           1     171.718 187.440 279.649  0.00  0.00     0.008 A 
ENDBRANCH  28  29
ENDBRANCH  27  28
ENDBRANCH   4  27
BRANCH  10  35
HETATM   35  O           1     172.573 186.510 291.328  0.00  0.00    -0.353 OA
HETATM   36  C           1     171.589 185.550 291.607  0.00  0.00     0.210 C 
ENDBRANCH  10  35
TORSDOF 10
ENDMDL
