REMARK  9 active torsions:
REMARK  status: ('A' for Active; 'I' for Inactive)
REMARK    1  A    between atoms: C_4  and  S_30 
REMARK    2  A    between atoms: C_5  and  C_7 
REMARK    3  A    between atoms: C_7  and  N_8 
REMARK    4  A    between atoms: N_8  and  C_9 
REMARK    5  A    between atoms: C_9  and  C_10 
REMARK    6  A    between atoms: C_10  and  C_11 
REMARK    7  A    between atoms: N_14  and  C_17 
REMARK    8  A    between atoms: S_30  and  C_37 
REMARK    9  A    between atoms: C_31  and  C_37 
ROOT
HETATM    1  C           1      -2.760  -4.424   2.278  0.00  0.00    -0.005 A 
HETATM    2  C           1      -3.628  -4.399   1.199  0.00  0.00     0.130 A 
HETATM    3  N           1      -3.604  -3.451   0.236  0.00  0.00    -0.253 NA
HETATM    4  C           1      -2.667  -2.486   0.362  0.00  0.00     0.101 A 
HETATM    5  C           1      -1.756  -2.426   1.404  0.00  0.00     0.006 A 
HETATM    6  C           1      -1.806  -3.416   2.379  0.00  0.00     0.025 A 
HETATM    7  C           1      -2.836  -5.392   3.198  0.00  0.00     0.014 A 
HETATM    8  C           1      -3.459  -5.143   4.421  0.00  0.00     0.130 A 
HETATM    9  C           1      -3.538  -6.152   5.381  0.00  0.00     0.085 A 
HETATM   10  C           1      -2.995  -7.410   5.117  0.00  0.00     0.119 A 
HETATM   11  C           1      -2.373  -7.658   3.894  0.00  0.00     0.043 A 
HETATM   12  C           1      -2.293  -6.649   2.934  0.00  0.00     0.018 A 
HETATM   13  F           1      -3.070  -8.365   6.025  0.00  0.00    -0.206 F 
HETATM   14  F           1      -3.972  -3.953   4.671  0.00  0.00    -0.205 F 
ENDROOT
BRANCH   5  15
HETATM   15  C           1      -0.745  -1.325   1.478  0.00  0.00     0.311 C 
BRANCH  15  16
HETATM   16  N           1      -0.911  -0.444   0.354  0.00  0.00     0.087 N 
HETATM   17  H           1      -0.763  -0.964  -0.510  0.00  0.00     0.316 HD
BRANCH  16  18
HETATM   18  C           1       0.076   0.596   0.464  0.00  0.00     0.270 C 
BRANCH  18  19
HETATM   19  C           1      -0.063   1.556  -0.710  0.00  0.00     0.034 C 
BRANCH  19  20
HETATM   20  C           1       0.983   2.657  -0.594  0.00  0.00    -0.010 C 
HETATM   21  C           1       1.817   2.425   0.661  0.00  0.00     0.035 C 
HETATM   22  C           1       3.003   3.385   0.724  0.00  0.00     0.273 C 
HETATM   23  N           1       3.829   3.296  -0.482  0.00  0.00     0.093 N 
HETATM   24  C           1       3.052   3.593  -1.686  0.00  0.00     0.273 C 
HETATM   25  C           1       1.868   2.640  -1.836  0.00  0.00     0.035 C 
BRANCH  23  26
HETATM   26  C           1       4.836   4.314  -0.349  0.00  0.00     0.223 C 
HETATM   27  C           1       5.579   4.175   0.971  0.00  0.00     0.036 C 
HETATM   28  C           1       6.980   4.727   0.712  0.00  0.00     0.002 C 
HETATM   29  C           1       7.094   4.915  -0.800  0.00  0.00     0.002 C 
HETATM   30  C           1       5.929   4.134  -1.388  0.00  0.00     0.036 C 
ENDBRANCH  23  26
ENDBRANCH  19  20
ENDBRANCH  18  19
ENDBRANCH  16  18
ENDBRANCH  15  16
ENDBRANCH   5  15
BRANCH   4  31
HETATM   31  S           1      -2.598  -1.192  -0.909  0.00  0.00    -0.105 SA
BRANCH  31  32
HETATM   32  C           1      -3.980  -1.879  -1.865  0.00  0.00     0.119 C 
BRANCH  32  33
HETATM   33  C           1      -4.231  -1.022  -3.066  0.00  0.00    -0.049 A 
HETATM   34  C           1      -5.252  -1.353  -3.958  0.00  0.00     0.008 A 
HETATM   35  C           1      -5.486  -0.555  -5.077  0.00  0.00     0.001 A 
HETATM   36  C           1      -4.700   0.574  -5.306  0.00  0.00     0.000 A 
HETATM   37  C           1      -3.680   0.905  -4.414  0.00  0.00     0.001 A 
HETATM   38  C           1      -3.445   0.107  -3.295  0.00  0.00     0.008 A 
ENDBRANCH  32  33
ENDBRANCH  31  32
ENDBRANCH   4  31
TORSDOF 9
