REMARK  9 active torsions:
REMARK  status: ('A' for Active; 'I' for Inactive)
REMARK    1  A    between atoms: C_4  and  S_31 
REMARK    2  A    between atoms: C_5  and  C_7 
REMARK    3  A    between atoms: C_7  and  N_8 
REMARK    4  A    between atoms: N_8  and  C_9 
REMARK    5  A    between atoms: C_9  and  C_10 
REMARK    6  A    between atoms: C_10  and  C_11 
REMARK    7  A    between atoms: N_14  and  C_17 
REMARK    8  A    between atoms: S_31  and  C_38 
REMARK    9  A    between atoms: C_32  and  C_38 
ROOT
HETATM    1  C           1      -2.457  -3.548   1.636  0.00  0.00    -0.008 A 
HETATM    2  C           1      -3.325  -3.523   0.557  0.00  0.00     0.130 A 
HETATM    3  N           1      -3.301  -2.575  -0.405  0.00  0.00    -0.253 NA
HETATM    4  C           1      -2.364  -1.610  -0.280  0.00  0.00     0.101 A 
HETATM    5  C           1      -1.453  -1.550   0.762  0.00  0.00     0.006 A 
HETATM    6  C           1      -1.503  -2.540   1.738  0.00  0.00     0.025 A 
HETATM    7  C           1      -2.533  -4.516   2.556  0.00  0.00    -0.024 A 
HETATM    8  C           1      -3.156  -4.267   3.779  0.00  0.00     0.014 A 
HETATM    9  C           1      -3.235  -5.277   4.739  0.00  0.00     0.030 A 
HETATM   10  C           1      -2.692  -6.534   4.475  0.00  0.00     0.029 A 
HETATM   11  C           1      -2.070  -6.782   3.252  0.00  0.00     0.030 A 
HETATM   12  C           1      -1.990  -5.773   2.292  0.00  0.00     0.014 A 
HETATM   13  N           1      -2.764  -7.450   5.346  0.00  0.00    -0.390 N 
HETATM   14  C           1      -2.192  -8.775   5.068  0.00  0.00     0.149 C 
HETATM   15  C           1      -3.420  -7.188   6.635  0.00  0.00     0.149 C 
ENDROOT
BRANCH   5  16
HETATM   16  C           1      -0.442  -0.449   0.836  0.00  0.00     0.311 C 
BRANCH  16  17
HETATM   17  N           1      -0.608   0.432  -0.288  0.00  0.00     0.087 N 
HETATM   18  H           1      -0.460  -0.088  -1.152  0.00  0.00     0.316 HD
BRANCH  17  19
HETATM   19  C           1       0.380   1.472  -0.178  0.00  0.00     0.270 C 
BRANCH  19  20
HETATM   20  C           1       0.240   2.432  -1.352  0.00  0.00     0.034 C 
BRANCH  20  21
HETATM   21  C           1       1.286   3.533  -1.236  0.00  0.00    -0.010 C 
HETATM   22  C           1       2.120   3.301   0.019  0.00  0.00     0.035 C 
HETATM   23  C           1       3.306   4.261   0.082  0.00  0.00     0.273 C 
HETATM   24  N           1       4.132   4.172  -1.123  0.00  0.00     0.093 N 
HETATM   25  C           1       3.355   4.469  -2.328  0.00  0.00     0.273 C 
HETATM   26  C           1       2.171   3.516  -2.478  0.00  0.00     0.035 C 
BRANCH  24  27
HETATM   27  C           1       5.139   5.190  -0.991  0.00  0.00     0.223 C 
HETATM   28  C           1       5.882   5.051   0.329  0.00  0.00     0.036 C 
HETATM   29  C           1       7.283   5.603   0.070  0.00  0.00     0.002 C 
HETATM   30  C           1       7.397   5.791  -1.442  0.00  0.00     0.002 C 
HETATM   31  C           1       6.232   5.010  -2.029  0.00  0.00     0.036 C 
ENDBRANCH  24  27
ENDBRANCH  20  21
ENDBRANCH  19  20
ENDBRANCH  17  19
ENDBRANCH  16  17
ENDBRANCH   5  16
BRANCH   4  32
HETATM   32  S           1      -2.295  -0.316  -1.551  0.00  0.00    -0.105 SA
BRANCH  32  33
HETATM   33  C           1      -3.677  -1.003  -2.507  0.00  0.00     0.119 C 
BRANCH  33  34
HETATM   34  C           1      -3.928  -0.146  -3.708  0.00  0.00    -0.049 A 
HETATM   35  C           1      -4.949  -0.477  -4.599  0.00  0.00     0.008 A 
HETATM   36  C           1      -5.183   0.321  -5.719  0.00  0.00     0.001 A 
HETATM   37  C           1      -4.397   1.450  -5.947  0.00  0.00     0.000 A 
HETATM   38  C           1      -3.376   1.781  -5.056  0.00  0.00     0.001 A 
HETATM   39  C           1      -3.142   0.983  -3.937  0.00  0.00     0.008 A 
ENDBRANCH  33  34
ENDBRANCH  32  33
ENDBRANCH   4  32
TORSDOF 9
