REMARK  9 active torsions:
REMARK  status: ('A' for Active; 'I' for Inactive)
REMARK    1  A    between atoms: C_4  and  S_29 
REMARK    2  A    between atoms: C_5  and  C_7 
REMARK    3  A    between atoms: C_7  and  N_8 
REMARK    4  A    between atoms: N_8  and  C_9 
REMARK    5  A    between atoms: C_9  and  C_10 
REMARK    6  A    between atoms: C_10  and  C_11 
REMARK    7  A    between atoms: N_14  and  C_17 
REMARK    8  A    between atoms: S_29  and  C_36 
REMARK    9  A    between atoms: C_30  and  C_36 
ROOT
HETATM    1  C           1      -2.761  -4.422   2.279  0.00  0.00    -0.008 A 
HETATM    2  C           1      -3.629  -4.396   1.199  0.00  0.00     0.130 A 
HETATM    3  N           1      -3.605  -3.449   0.237  0.00  0.00    -0.253 NA
HETATM    4  C           1      -2.668  -2.483   0.362  0.00  0.00     0.101 A 
HETATM    5  C           1      -1.757  -2.423   1.405  0.00  0.00     0.006 A 
HETATM    6  C           1      -1.808  -3.414   2.380  0.00  0.00     0.025 A 
HETATM    7  C           1      -2.837  -5.389   3.199  0.00  0.00    -0.024 A 
HETATM    8  C           1      -3.460  -5.141   4.422  0.00  0.00     0.015 A 
HETATM    9  C           1      -3.539  -6.150   5.381  0.00  0.00     0.043 A 
HETATM   10  C           1      -2.996  -7.407   5.118  0.00  0.00     0.116 A 
HETATM   11  C           1      -2.374  -7.656   3.894  0.00  0.00     0.043 A 
HETATM   12  C           1      -2.294  -6.646   2.935  0.00  0.00     0.015 A 
HETATM   13  F           1      -3.072  -8.362   6.026  0.00  0.00    -0.206 F 
ENDROOT
BRANCH   5  14
HETATM   14  C           1      -0.746  -1.322   1.479  0.00  0.00     0.311 C 
BRANCH  14  15
HETATM   15  N           1      -0.912  -0.441   0.355  0.00  0.00     0.087 N 
HETATM   16  H           1      -0.764  -0.961  -0.510  0.00  0.00     0.316 HD
BRANCH  15  17
HETATM   17  C           1       0.075   0.599   0.465  0.00  0.00     0.270 C 
BRANCH  17  18
HETATM   18  C           1      -0.065   1.559  -0.710  0.00  0.00     0.034 C 
BRANCH  18  19
HETATM   19  C           1       0.981   2.660  -0.593  0.00  0.00    -0.010 C 
HETATM   20  C           1       1.816   2.427   0.662  0.00  0.00     0.035 C 
HETATM   21  C           1       3.002   3.388   0.724  0.00  0.00     0.273 C 
HETATM   22  N           1       3.827   3.299  -0.481  0.00  0.00     0.093 N 
HETATM   23  C           1       3.051   3.596  -1.685  0.00  0.00     0.273 C 
HETATM   24  C           1       1.867   2.643  -1.836  0.00  0.00     0.035 C 
BRANCH  22  25
HETATM   25  C           1       4.835   4.317  -0.348  0.00  0.00     0.223 C 
HETATM   26  C           1       5.578   4.178   0.972  0.00  0.00     0.036 C 
HETATM   27  C           1       6.979   4.729   0.712  0.00  0.00     0.002 C 
HETATM   28  C           1       7.093   4.918  -0.799  0.00  0.00     0.002 C 
HETATM   29  C           1       5.928   4.137  -1.387  0.00  0.00     0.036 C 
ENDBRANCH  22  25
ENDBRANCH  18  19
ENDBRANCH  17  18
ENDBRANCH  15  17
ENDBRANCH  14  15
ENDBRANCH   5  14
BRANCH   4  30
HETATM   30  S           1      -2.600  -1.189  -0.909  0.00  0.00    -0.105 SA
BRANCH  30  31
HETATM   31  C           1      -3.981  -1.876  -1.864  0.00  0.00     0.119 C 
BRANCH  31  32
HETATM   32  C           1      -4.233  -1.020  -3.066  0.00  0.00    -0.049 A 
HETATM   33  C           1      -5.253  -1.351  -3.957  0.00  0.00     0.008 A 
HETATM   34  C           1      -5.487  -0.552  -5.077  0.00  0.00     0.001 A 
HETATM   35  C           1      -4.701   0.577  -5.305  0.00  0.00     0.000 A 
HETATM   36  C           1      -3.681   0.908  -4.414  0.00  0.00     0.001 A 
HETATM   37  C           1      -3.446   0.110  -3.294  0.00  0.00     0.008 A 
ENDBRANCH  31  32
ENDBRANCH  30  31
ENDBRANCH   4  30
TORSDOF 9
