REMARK  9 active torsions:
REMARK  status: ('A' for Active; 'I' for Inactive)
REMARK    1  A    between atoms: C_4  and  S_29 
REMARK    2  A    between atoms: C_5  and  C_7 
REMARK    3  A    between atoms: C_7  and  N_8 
REMARK    4  A    between atoms: N_8  and  C_9 
REMARK    5  A    between atoms: C_9  and  C_10 
REMARK    6  A    between atoms: C_10  and  C_11 
REMARK    7  A    between atoms: N_14  and  C_17 
REMARK    8  A    between atoms: S_29  and  C_36 
REMARK    9  A    between atoms: C_30  and  C_36 
ROOT
HETATM    1  C           1      -2.640  -4.079   2.028  0.00  0.00    -0.008 A 
HETATM    2  C           1      -3.508  -4.054   0.948  0.00  0.00     0.130 A 
HETATM    3  N           1      -3.484  -3.106  -0.014  0.00  0.00    -0.253 NA
HETATM    4  C           1      -2.547  -2.140   0.111  0.00  0.00     0.101 A 
HETATM    5  C           1      -1.636  -2.080   1.154  0.00  0.00     0.006 A 
HETATM    6  C           1      -1.687  -3.071   2.129  0.00  0.00     0.025 A 
HETATM    7  C           1      -2.716  -5.046   2.947  0.00  0.00    -0.025 A 
HETATM    8  C           1      -3.339  -4.798   4.171  0.00  0.00     0.013 A 
HETATM    9  C           1      -3.418  -5.807   5.130  0.00  0.00     0.007 A 
HETATM   10  C           1      -2.875  -7.064   4.867  0.00  0.00    -0.062 A 
HETATM   11  C           1      -2.253  -7.313   3.643  0.00  0.00     0.007 A 
HETATM   12  C           1      -2.173  -6.304   2.684  0.00  0.00     0.013 A 
HETATM   13  C           1      -2.961  -8.147   5.896  0.00  0.00     0.048 C 
ENDROOT
BRANCH   5  14
HETATM   14  C           1      -0.625  -0.979   1.228  0.00  0.00     0.311 C 
BRANCH  14  15
HETATM   15  N           1      -0.791  -0.098   0.104  0.00  0.00     0.087 N 
HETATM   16  H           1      -0.643  -0.618  -0.761  0.00  0.00     0.316 HD
BRANCH  15  17
HETATM   17  C           1       0.196   0.942   0.213  0.00  0.00     0.270 C 
BRANCH  17  18
HETATM   18  C           1       0.056   1.901  -0.961  0.00  0.00     0.034 C 
BRANCH  18  19
HETATM   19  C           1       1.102   3.002  -0.845  0.00  0.00    -0.010 C 
HETATM   20  C           1       1.937   2.770   0.411  0.00  0.00     0.035 C 
HETATM   21  C           1       3.123   3.731   0.473  0.00  0.00     0.273 C 
HETATM   22  N           1       3.948   3.642  -0.732  0.00  0.00     0.093 N 
HETATM   23  C           1       3.172   3.939  -1.936  0.00  0.00     0.273 C 
HETATM   24  C           1       1.988   2.986  -2.087  0.00  0.00     0.035 C 
BRANCH  22  25
HETATM   25  C           1       4.956   4.660  -0.599  0.00  0.00     0.223 C 
HETATM   26  C           1       5.699   4.521   0.721  0.00  0.00     0.036 C 
HETATM   27  C           1       7.100   5.072   0.461  0.00  0.00     0.002 C 
HETATM   28  C           1       7.214   5.261  -1.050  0.00  0.00     0.002 C 
HETATM   29  C           1       6.049   4.480  -1.638  0.00  0.00     0.036 C 
ENDBRANCH  22  25
ENDBRANCH  18  19
ENDBRANCH  17  18
ENDBRANCH  15  17
ENDBRANCH  14  15
ENDBRANCH   5  14
BRANCH   4  30
HETATM   30  S           1      -2.479  -0.846  -1.160  0.00  0.00    -0.105 SA
BRANCH  30  31
HETATM   31  C           1      -3.860  -1.533  -2.115  0.00  0.00     0.119 C 
BRANCH  31  32
HETATM   32  C           1      -4.112  -0.677  -3.317  0.00  0.00    -0.049 A 
HETATM   33  C           1      -5.132  -1.008  -4.208  0.00  0.00     0.008 A 
HETATM   34  C           1      -5.366  -0.210  -5.328  0.00  0.00     0.001 A 
HETATM   35  C           1      -4.580   0.920  -5.556  0.00  0.00     0.000 A 
HETATM   36  C           1      -3.560   1.251  -4.665  0.00  0.00     0.001 A 
HETATM   37  C           1      -3.325   0.453  -3.545  0.00  0.00     0.008 A 
ENDBRANCH  31  32
ENDBRANCH  30  31
ENDBRANCH   4  30
TORSDOF 9
