REMARK  9 active torsions:
REMARK  status: ('A' for Active; 'I' for Inactive)
REMARK    1  A    between atoms: C_4  and  S_28 
REMARK    2  A    between atoms: C_5  and  C_7 
REMARK    3  A    between atoms: C_7  and  N_8 
REMARK    4  A    between atoms: N_8  and  C_9 
REMARK    5  A    between atoms: C_9  and  C_10 
REMARK    6  A    between atoms: C_10  and  C_11 
REMARK    7  A    between atoms: N_14  and  C_17 
REMARK    8  A    between atoms: S_28  and  C_35 
REMARK    9  A    between atoms: C_29  and  C_35 
ROOT
HETATM    1  C           1      -2.719  -4.299   2.188  0.00  0.00    -0.008 A 
HETATM    2  C           1      -3.588  -4.274   1.108  0.00  0.00     0.130 A 
HETATM    3  N           1      -3.563  -3.326   0.146  0.00  0.00    -0.253 NA
HETATM    4  C           1      -2.627  -2.360   0.271  0.00  0.00     0.101 A 
HETATM    5  C           1      -1.715  -2.301   1.314  0.00  0.00     0.006 A 
HETATM    6  C           1      -1.766  -3.291   2.289  0.00  0.00     0.025 A 
HETATM    7  C           1      -2.795  -5.266   3.108  0.00  0.00    -0.024 A 
HETATM    8  C           1      -3.418  -5.018   4.331  0.00  0.00     0.014 A 
HETATM    9  C           1      -3.497  -6.027   5.291  0.00  0.00     0.023 A 
HETATM   10  C           1      -2.955  -7.285   5.027  0.00  0.00     0.044 A 
HETATM   11  C           1      -2.332  -7.533   3.804  0.00  0.00     0.023 A 
HETATM   12  C           1      -2.253  -6.524   2.844  0.00  0.00     0.014 A 
HETATM   13  C           1      -3.029  -8.235   5.930  0.00  0.00     0.099 C 
HETATM   14  N           1      -3.095  -9.073   6.727  0.00  0.00    -0.191 NA
ENDROOT
BRANCH   5  15
HETATM   15  C           1      -0.704  -1.200   1.388  0.00  0.00     0.311 C 
BRANCH  15  16
HETATM   16  N           1      -0.870  -0.318   0.264  0.00  0.00     0.087 N 
HETATM   17  H           1      -0.722  -0.839  -0.601  0.00  0.00     0.316 HD
BRANCH  16  18
HETATM   18  C           1       0.117   0.721   0.374  0.00  0.00     0.270 C 
BRANCH  18  19
HETATM   19  C           1      -0.023   1.681  -0.800  0.00  0.00     0.034 C 
BRANCH  19  20
HETATM   20  C           1       1.023   2.782  -0.684  0.00  0.00    -0.010 C 
HETATM   21  C           1       1.858   2.550   0.571  0.00  0.00     0.035 C 
HETATM   22  C           1       3.044   3.510   0.633  0.00  0.00     0.273 C 
HETATM   23  N           1       3.869   3.421  -0.572  0.00  0.00     0.093 N 
HETATM   24  C           1       3.092   3.719  -1.776  0.00  0.00     0.273 C 
HETATM   25  C           1       1.908   2.765  -1.927  0.00  0.00     0.035 C 
BRANCH  23  26
HETATM   26  C           1       4.877   4.439  -0.439  0.00  0.00     0.223 C 
HETATM   27  C           1       5.620   4.300   0.881  0.00  0.00     0.036 C 
HETATM   28  C           1       7.021   4.852   0.621  0.00  0.00     0.002 C 
HETATM   29  C           1       7.135   5.040  -0.890  0.00  0.00     0.002 C 
HETATM   30  C           1       5.970   4.260  -1.478  0.00  0.00     0.036 C 
ENDBRANCH  23  26
ENDBRANCH  19  20
ENDBRANCH  18  19
ENDBRANCH  16  18
ENDBRANCH  15  16
ENDBRANCH   5  15
BRANCH   4  31
HETATM   31  S           1      -2.558  -1.066  -0.999  0.00  0.00    -0.105 SA
BRANCH  31  32
HETATM   32  C           1      -3.939  -1.754  -1.955  0.00  0.00     0.119 C 
BRANCH  32  33
HETATM   33  C           1      -4.191  -0.897  -3.157  0.00  0.00    -0.049 A 
HETATM   34  C           1      -5.211  -1.228  -4.048  0.00  0.00     0.008 A 
HETATM   35  C           1      -5.446  -0.430  -5.168  0.00  0.00     0.001 A 
HETATM   36  C           1      -4.659   0.699  -5.396  0.00  0.00     0.000 A 
HETATM   37  C           1      -3.639   1.030  -4.505  0.00  0.00     0.001 A 
HETATM   38  C           1      -3.404   0.232  -3.385  0.00  0.00     0.008 A 
ENDBRANCH  32  33
ENDBRANCH  31  32
ENDBRANCH   4  31
TORSDOF 9
