REMARK  9 active torsions:
REMARK  status: ('A' for Active; 'I' for Inactive)
REMARK    1  A    between atoms: C_4  and  S_25 
REMARK    2  A    between atoms: C_5  and  C_7 
REMARK    3  A    between atoms: C_7  and  N_8 
REMARK    4  A    between atoms: N_8  and  C_9 
REMARK    5  A    between atoms: C_9  and  C_10 
REMARK    6  A    between atoms: C_10  and  C_11 
REMARK    7  A    between atoms: N_14  and  C_17 
REMARK    8  A    between atoms: S_25  and  C_32 
REMARK    9  A    between atoms: C_26  and  C_32 
ROOT
HETATM    1  C           1       5.031   0.659  -0.108  0.00  0.00    -0.008 A 
HETATM    2  C           1       5.840  -0.428   0.183  0.00  0.00     0.130 A 
HETATM    3  N           1       5.368  -1.651   0.509  0.00  0.00    -0.253 NA
HETATM    4  C           1       4.024  -1.791   0.544  0.00  0.00     0.101 A 
HETATM    5  C           1       3.135  -0.765   0.269  0.00  0.00     0.006 A 
HETATM    6  C           1       3.652   0.483  -0.063  0.00  0.00     0.025 A 
HETATM    7  C           1       5.562   1.845  -0.423  0.00  0.00    -0.025 A 
HETATM    8  C           1       6.894   1.927  -0.829  0.00  0.00     0.012 A 
HETATM    9  C           1       7.448   3.164  -1.158  0.00  0.00     0.001 A 
HETATM   10  C           1       6.670   4.319  -1.080  0.00  0.00     0.000 A 
HETATM   11  C           1       5.338   4.237  -0.674  0.00  0.00     0.001 A 
HETATM   12  C           1       4.784   3.000  -0.345  0.00  0.00     0.012 A 
ENDROOT
BRANCH   5  13
HETATM   13  C           1       1.657  -0.993   0.328  0.00  0.00     0.308 C 
BRANCH  13  14
HETATM   14  N           1       0.969   0.227   0.001  0.00  0.00     0.087 N 
HETATM   15  H           1       1.214   0.947   0.681  0.00  0.00     0.316 HD
BRANCH  14  16
HETATM   16  C           1      -0.443  -0.035   0.069  0.00  0.00     0.270 C 
BRANCH  16  17
HETATM   17  C           1      -1.213   1.234  -0.270  0.00  0.00     0.034 C 
BRANCH  17  18
HETATM   18  C           1      -2.709   0.957  -0.199  0.00  0.00    -0.010 C 
HETATM   19  C           1      -3.336   1.862   0.857  0.00  0.00     0.035 C 
HETATM   20  C           1      -4.860   1.764   0.834  0.00  0.00     0.272 C 
HETATM   21  N           1      -5.397   2.056  -0.496  0.00  0.00     0.088 N 
HETATM   22  C           1      -4.857   1.141  -1.503  0.00  0.00     0.272 C 
HETATM   23  C           1      -3.333   1.216  -1.566  0.00  0.00     0.035 C 
BRANCH  21  24
HETATM   24  C           1      -6.814   1.827  -0.412  0.00  0.00     0.268 C 
HETATM   25  C           1      -7.455   2.109  -1.764  0.00  0.00     0.037 C 
ENDBRANCH  21  24
ENDBRANCH  17  18
ENDBRANCH  16  17
ENDBRANCH  14  16
ENDBRANCH  13  14
ENDBRANCH   5  13
BRANCH   4  26
HETATM   26  S           1       3.346  -3.418   0.976  0.00  0.00    -0.105 SA
BRANCH  26  27
HETATM   27  C           1       1.619  -2.878   0.830  0.00  0.00     0.122 C 
BRANCH  27  28
HETATM   28  C           1       0.709  -4.026   1.135  0.00  0.00    -0.049 A 
HETATM   29  C           1       1.243  -5.271   1.467  0.00  0.00     0.008 A 
HETATM   30  C           1       0.395  -6.341   1.751  0.00  0.00     0.001 A 
HETATM   31  C           1      -0.988  -6.167   1.702  0.00  0.00     0.000 A 
HETATM   32  C           1      -1.523  -4.922   1.370  0.00  0.00     0.001 A 
HETATM   33  C           1      -0.674  -3.852   1.086  0.00  0.00     0.008 A 
ENDBRANCH  27  28
ENDBRANCH  26  27
ENDBRANCH   4  26
TORSDOF 9
