REMARK  10 active torsions:
REMARK  status: ('A' for Active; 'I' for Inactive)
REMARK    1  A    between atoms: C_4  and  S_29 
REMARK    2  A    between atoms: C_5  and  C_7 
REMARK    3  A    between atoms: C_7  and  N_8 
REMARK    4  A    between atoms: N_8  and  C_9 
REMARK    5  A    between atoms: C_9  and  C_10 
REMARK    6  A    between atoms: C_10  and  C_11 
REMARK    7  A    between atoms: N_14  and  C_17 
REMARK    8  A    between atoms: C_21  and  O_37 
REMARK    9  A    between atoms: S_29  and  C_36 
REMARK   10  A    between atoms: C_30  and  C_36 
ROOT
HETATM    1  C           1      -2.639  -3.919   1.994  0.00  0.00    -0.008 A 
HETATM    2  C           1      -3.508  -3.894   0.915  0.00  0.00     0.130 A 
HETATM    3  N           1      -3.483  -2.946  -0.048  0.00  0.00    -0.253 NA
HETATM    4  C           1      -2.547  -1.981   0.078  0.00  0.00     0.101 A 
HETATM    5  C           1      -1.635  -1.921   1.120  0.00  0.00     0.006 A 
HETATM    6  C           1      -1.686  -2.911   2.096  0.00  0.00     0.025 A 
HETATM    7  C           1      -2.715  -4.887   2.914  0.00  0.00    -0.021 A 
HETATM    8  C           1      -3.338  -4.638   4.137  0.00  0.00     0.057 A 
HETATM    9  C           1      -3.417  -5.648   5.097  0.00  0.00     0.150 A 
HETATM   10  C           1      -2.875  -6.905   4.833  0.00  0.00     0.106 A 
HETATM   11  C           1      -2.252  -7.153   3.610  0.00  0.00     0.041 A 
HETATM   12  C           1      -2.173  -6.144   2.650  0.00  0.00     0.015 A 
HETATM   13  F           1      -4.006  -5.413   6.255  0.00  0.00    -0.203 F 
ENDROOT
BRANCH   5  14
HETATM   14  C           1      -0.624  -0.820   1.194  0.00  0.00     0.311 C 
BRANCH  14  15
HETATM   15  N           1      -0.790   0.061   0.070  0.00  0.00     0.087 N 
HETATM   16  H           1      -0.642  -0.459  -0.794  0.00  0.00     0.316 HD
BRANCH  15  17
HETATM   17  C           1       0.197   1.101   0.180  0.00  0.00     0.270 C 
BRANCH  17  18
HETATM   18  C           1       0.057   2.061  -0.994  0.00  0.00     0.034 C 
BRANCH  18  19
HETATM   19  C           1       1.103   3.162  -0.878  0.00  0.00    -0.010 C 
HETATM   20  C           1       1.938   2.930   0.377  0.00  0.00     0.035 C 
HETATM   21  C           1       3.124   3.890   0.440  0.00  0.00     0.273 C 
HETATM   22  N           1       3.949   3.801  -0.765  0.00  0.00     0.093 N 
HETATM   23  C           1       3.172   4.098  -1.970  0.00  0.00     0.273 C 
HETATM   24  C           1       1.988   3.145  -2.120  0.00  0.00     0.035 C 
BRANCH  22  25
HETATM   25  C           1       4.957   4.819  -0.633  0.00  0.00     0.223 C 
HETATM   26  C           1       5.700   4.680   0.687  0.00  0.00     0.036 C 
HETATM   27  C           1       7.101   5.232   0.428  0.00  0.00     0.002 C 
HETATM   28  C           1       7.215   5.420  -1.084  0.00  0.00     0.002 C 
HETATM   29  C           1       6.050   4.639  -1.671  0.00  0.00     0.036 C 
ENDBRANCH  22  25
ENDBRANCH  18  19
ENDBRANCH  17  18
ENDBRANCH  15  17
ENDBRANCH  14  15
ENDBRANCH   5  14
BRANCH   4  30
HETATM   30  S           1      -2.478  -0.687  -1.193  0.00  0.00    -0.105 SA
BRANCH  30  31
HETATM   31  C           1      -3.859  -1.374  -2.149  0.00  0.00     0.119 C 
BRANCH  31  32
HETATM   32  C           1      -4.111  -0.517  -3.350  0.00  0.00    -0.049 A 
HETATM   33  C           1      -5.131  -0.848  -4.242  0.00  0.00     0.008 A 
HETATM   34  C           1      -5.366  -0.050  -5.361  0.00  0.00     0.001 A 
HETATM   35  C           1      -4.579   1.079  -5.589  0.00  0.00     0.000 A 
HETATM   36  C           1      -3.559   1.410  -4.698  0.00  0.00     0.001 A 
HETATM   37  C           1      -3.325   0.612  -3.579  0.00  0.00     0.008 A 
ENDBRANCH  31  32
ENDBRANCH  30  31
ENDBRANCH   4  30
BRANCH  10  38
HETATM   38  O           1      -2.952  -7.885   5.765  0.00  0.00    -0.353 OA
HETATM   39  C           1      -2.348  -9.062   5.301  0.00  0.00     0.210 C 
ENDBRANCH  10  38
TORSDOF 10
