REMARK  10 active torsions:
REMARK  status: ('A' for Active; 'I' for Inactive)
REMARK    1  A    between atoms: C_4  and  S_26 
REMARK    2  A    between atoms: C_5  and  C_13 
REMARK    3  A    between atoms: C_13  and  N_14 
REMARK    4  A    between atoms: N_14  and  C_16 
REMARK    5  A    between atoms: C_16  and  C_17 
REMARK    6  A    between atoms: C_17  and  C_18 
REMARK    7  A    between atoms: N_21  and  C_24 
REMARK    8  A    between atoms: C_10  and  O_34 
REMARK    9  A    between atoms: S_26  and  C_27 
REMARK   10  A    between atoms: C_28  and  C_27 
ROOT
HETATM    1  C           1       4.688   0.275  -0.038  0.00  0.00    -0.008 A 
HETATM    2  C           1       5.497  -0.811   0.253  0.00  0.00     0.130 A 
HETATM    3  N           1       5.024  -2.034   0.578  0.00  0.00    -0.253 NA
HETATM    4  C           1       3.681  -2.174   0.614  0.00  0.00     0.101 A 
HETATM    5  C           1       2.791  -1.148   0.339  0.00  0.00     0.006 A 
HETATM    6  C           1       3.308   0.100   0.007  0.00  0.00     0.025 A 
HETATM    7  C           1       5.218   1.461  -0.353  0.00  0.00    -0.024 A 
HETATM    8  C           1       6.550   1.543  -0.759  0.00  0.00     0.015 A 
HETATM    9  C           1       7.104   2.781  -1.088  0.00  0.00     0.037 A 
HETATM   10  C           1       6.326   3.936  -1.010  0.00  0.00     0.068 A 
HETATM   11  C           1       4.994   3.854  -0.604  0.00  0.00     0.037 A 
HETATM   12  C           1       4.440   2.616  -0.275  0.00  0.00     0.015 A 
ENDROOT
BRANCH   5  13
HETATM   13  C           1       1.313  -1.376   0.398  0.00  0.00     0.308 C 
BRANCH  13  14
HETATM   14  N           1       0.626  -0.156   0.071  0.00  0.00     0.087 N 
HETATM   15  H           1       0.871   0.564   0.751  0.00  0.00     0.316 HD
BRANCH  14  16
HETATM   16  C           1      -0.787  -0.418   0.139  0.00  0.00     0.270 C 
BRANCH  16  17
HETATM   17  C           1      -1.556   0.851  -0.200  0.00  0.00     0.034 C 
BRANCH  17  18
HETATM   18  C           1      -3.052   0.573  -0.129  0.00  0.00    -0.010 C 
HETATM   19  C           1      -3.680   1.478   0.927  0.00  0.00     0.035 C 
HETATM   20  C           1      -5.204   1.381   0.904  0.00  0.00     0.272 C 
HETATM   21  N           1      -5.740   1.673  -0.426  0.00  0.00     0.088 N 
HETATM   22  C           1      -5.201   0.758  -1.433  0.00  0.00     0.272 C 
HETATM   23  C           1      -3.676   0.833  -1.496  0.00  0.00     0.035 C 
BRANCH  21  24
HETATM   24  C           1      -7.157   1.444  -0.342  0.00  0.00     0.268 C 
HETATM   25  C           1      -7.799   1.726  -1.694  0.00  0.00     0.037 C 
ENDBRANCH  21  24
ENDBRANCH  17  18
ENDBRANCH  16  17
ENDBRANCH  14  16
ENDBRANCH  13  14
ENDBRANCH   5  13
BRANCH   4  26
HETATM   26  S           1       3.002  -3.801   1.046  0.00  0.00    -0.105 SA
BRANCH  26  27
HETATM   27  C           1       1.276  -3.261   0.900  0.00  0.00     0.122 C 
BRANCH  27  28
HETATM   28  C           1       0.365  -4.410   1.204  0.00  0.00    -0.049 A 
HETATM   29  C           1       0.900  -5.654   1.537  0.00  0.00     0.008 A 
HETATM   30  C           1       0.051  -6.724   1.821  0.00  0.00     0.001 A 
HETATM   31  C           1      -1.332  -6.550   1.772  0.00  0.00     0.000 A 
HETATM   32  C           1      -1.866  -5.305   1.440  0.00  0.00     0.001 A 
HETATM   33  C           1      -1.018  -4.235   1.156  0.00  0.00     0.008 A 
ENDBRANCH  27  28
ENDBRANCH  26  27
ENDBRANCH   4  26
BRANCH  10  34
HETATM   34  O           1       6.864   5.138  -1.330  0.00  0.00    -0.356 OA
HETATM   35  C           1       5.917   6.161  -1.185  0.00  0.00     0.210 C 
ENDBRANCH  10  34
TORSDOF 10
