REMARK  10 active torsions:
REMARK  status: ('A' for Active; 'I' for Inactive)
REMARK    1  A    between atoms: C_4  and  S_26 
REMARK    2  A    between atoms: C_5  and  C_7 
REMARK    3  A    between atoms: C_7  and  N_8 
REMARK    4  A    between atoms: N_8  and  C_9 
REMARK    5  A    between atoms: C_9  and  C_10 
REMARK    6  A    between atoms: C_10  and  C_11 
REMARK    7  A    between atoms: N_14  and  C_17 
REMARK    8  A    between atoms: C_22  and  O_34 
REMARK    9  A    between atoms: S_26  and  C_33 
REMARK   10  A    between atoms: C_27  and  C_33 
ROOT
HETATM    1  C           1       4.685   0.275  -0.037  0.00  0.00    -0.008 A 
HETATM    2  C           1       5.494  -0.812   0.254  0.00  0.00     0.130 A 
HETATM    3  N           1       5.021  -2.035   0.579  0.00  0.00    -0.253 NA
HETATM    4  C           1       3.678  -2.175   0.615  0.00  0.00     0.101 A 
HETATM    5  C           1       2.788  -1.148   0.340  0.00  0.00     0.006 A 
HETATM    6  C           1       3.305   0.100   0.008  0.00  0.00     0.025 A 
HETATM    7  C           1       5.216   1.461  -0.352  0.00  0.00    -0.021 A 
HETATM    8  C           1       6.547   1.543  -0.758  0.00  0.00     0.057 A 
HETATM    9  C           1       7.101   2.780  -1.087  0.00  0.00     0.150 A 
HETATM   10  C           1       6.323   3.936  -1.010  0.00  0.00     0.106 A 
HETATM   11  C           1       4.991   3.854  -0.603  0.00  0.00     0.041 A 
HETATM   12  C           1       4.438   2.616  -0.274  0.00  0.00     0.015 A 
HETATM   13  F           1       8.361   2.858  -1.472  0.00  0.00    -0.203 F 
ENDROOT
BRANCH   5  14
HETATM   14  C           1       1.310  -1.377   0.398  0.00  0.00     0.308 C 
BRANCH  14  15
HETATM   15  N           1       0.623  -0.156   0.072  0.00  0.00     0.087 N 
HETATM   16  H           1       0.868   0.564   0.752  0.00  0.00     0.316 HD
BRANCH  15  17
HETATM   17  C           1      -0.790  -0.419   0.140  0.00  0.00     0.270 C 
BRANCH  17  18
HETATM   18  C           1      -1.559   0.851  -0.200  0.00  0.00     0.034 C 
BRANCH  18  19
HETATM   19  C           1      -3.055   0.573  -0.128  0.00  0.00    -0.010 C 
HETATM   20  C           1      -3.683   1.478   0.928  0.00  0.00     0.035 C 
HETATM   21  C           1      -5.207   1.381   0.905  0.00  0.00     0.272 C 
HETATM   22  N           1      -5.743   1.673  -0.425  0.00  0.00     0.088 N 
HETATM   23  C           1      -5.204   0.758  -1.432  0.00  0.00     0.272 C 
HETATM   24  C           1      -3.679   0.833  -1.495  0.00  0.00     0.035 C 
BRANCH  22  25
HETATM   25  C           1      -7.160   1.444  -0.341  0.00  0.00     0.268 C 
HETATM   26  C           1      -7.802   1.726  -1.693  0.00  0.00     0.037 C 
ENDBRANCH  22  25
ENDBRANCH  18  19
ENDBRANCH  17  18
ENDBRANCH  15  17
ENDBRANCH  14  15
ENDBRANCH   5  14
BRANCH   4  27
HETATM   27  S           1       2.999  -3.801   1.047  0.00  0.00    -0.105 SA
BRANCH  27  28
HETATM   28  C           1       1.273  -3.261   0.901  0.00  0.00     0.122 C 
BRANCH  28  29
HETATM   29  C           1       0.362  -4.410   1.205  0.00  0.00    -0.049 A 
HETATM   30  C           1       0.897  -5.654   1.538  0.00  0.00     0.008 A 
HETATM   31  C           1       0.048  -6.725   1.822  0.00  0.00     0.001 A 
HETATM   32  C           1      -1.335  -6.550   1.773  0.00  0.00     0.000 A 
HETATM   33  C           1      -1.869  -5.306   1.441  0.00  0.00     0.001 A 
HETATM   34  C           1      -1.021  -4.235   1.157  0.00  0.00     0.008 A 
ENDBRANCH  28  29
ENDBRANCH  27  28
ENDBRANCH   4  27
BRANCH  10  35
HETATM   35  O           1       6.861   5.137  -1.329  0.00  0.00    -0.353 OA
HETATM   36  C           1       5.914   6.161  -1.184  0.00  0.00     0.210 C 
ENDBRANCH  10  35
TORSDOF 10
