REMARK  9 active torsions:
REMARK  status: ('A' for Active; 'I' for Inactive)
REMARK    1  A    between atoms: C_4  and  S_26 
REMARK    2  A    between atoms: C_5  and  C_7 
REMARK    3  A    between atoms: C_7  and  N_8 
REMARK    4  A    between atoms: N_8  and  C_9 
REMARK    5  A    between atoms: C_9  and  C_10 
REMARK    6  A    between atoms: C_10  and  C_11 
REMARK    7  A    between atoms: N_14  and  C_17 
REMARK    8  A    between atoms: S_26  and  C_33 
REMARK    9  A    between atoms: C_27  and  C_33 
ROOT
HETATM    1  C           1       5.030   0.656  -0.107  0.00  0.00    -0.008 A 
HETATM    2  C           1       5.839  -0.431   0.184  0.00  0.00     0.130 A 
HETATM    3  N           1       5.366  -1.654   0.509  0.00  0.00    -0.253 NA
HETATM    4  C           1       4.023  -1.794   0.545  0.00  0.00     0.101 A 
HETATM    5  C           1       3.134  -0.768   0.270  0.00  0.00     0.006 A 
HETATM    6  C           1       3.651   0.480  -0.062  0.00  0.00     0.025 A 
HETATM    7  C           1       5.561   1.842  -0.422  0.00  0.00    -0.024 A 
HETATM    8  C           1       6.893   1.924  -0.828  0.00  0.00     0.015 A 
HETATM    9  C           1       7.446   3.161  -1.157  0.00  0.00     0.043 A 
HETATM   10  C           1       6.668   4.316  -1.080  0.00  0.00     0.116 A 
HETATM   11  C           1       5.337   4.234  -0.673  0.00  0.00     0.043 A 
HETATM   12  C           1       4.783   2.997  -0.344  0.00  0.00     0.015 A 
HETATM   13  F           1       7.192   5.487  -1.391  0.00  0.00    -0.206 F 
ENDROOT
BRANCH   5  14
HETATM   14  C           1       1.655  -0.996   0.328  0.00  0.00     0.308 C 
BRANCH  14  15
HETATM   15  N           1       0.968   0.224   0.002  0.00  0.00     0.087 N 
HETATM   16  H           1       1.213   0.945   0.681  0.00  0.00     0.316 HD
BRANCH  15  17
HETATM   17  C           1      -0.444  -0.038   0.070  0.00  0.00     0.270 C 
BRANCH  17  18
HETATM   18  C           1      -1.214   1.232  -0.270  0.00  0.00     0.034 C 
BRANCH  18  19
HETATM   19  C           1      -2.710   0.954  -0.198  0.00  0.00    -0.010 C 
HETATM   20  C           1      -3.338   1.859   0.857  0.00  0.00     0.035 C 
HETATM   21  C           1      -4.862   1.762   0.835  0.00  0.00     0.272 C 
HETATM   22  N           1      -5.398   2.053  -0.495  0.00  0.00     0.088 N 
HETATM   23  C           1      -4.858   1.139  -1.502  0.00  0.00     0.272 C 
HETATM   24  C           1      -3.334   1.213  -1.565  0.00  0.00     0.035 C 
BRANCH  22  25
HETATM   25  C           1      -6.815   1.824  -0.411  0.00  0.00     0.268 C 
HETATM   26  C           1      -7.457   2.107  -1.763  0.00  0.00     0.037 C 
ENDBRANCH  22  25
ENDBRANCH  18  19
ENDBRANCH  17  18
ENDBRANCH  15  17
ENDBRANCH  14  15
ENDBRANCH   5  14
BRANCH   4  27
HETATM   27  S           1       3.344  -3.421   0.977  0.00  0.00    -0.105 SA
BRANCH  27  28
HETATM   28  C           1       1.618  -2.881   0.831  0.00  0.00     0.122 C 
BRANCH  28  29
HETATM   29  C           1       0.707  -4.029   1.135  0.00  0.00    -0.049 A 
HETATM   30  C           1       1.242  -5.274   1.468  0.00  0.00     0.008 A 
HETATM   31  C           1       0.394  -6.344   1.752  0.00  0.00     0.001 A 
HETATM   32  C           1      -0.989  -6.170   1.703  0.00  0.00     0.000 A 
HETATM   33  C           1      -1.524  -4.925   1.371  0.00  0.00     0.001 A 
HETATM   34  C           1      -0.676  -3.855   1.087  0.00  0.00     0.008 A 
ENDBRANCH  28  29
ENDBRANCH  27  28
ENDBRANCH   4  27
TORSDOF 9
