REMARK  9 active torsions:
REMARK  status: ('A' for Active; 'I' for Inactive)
REMARK    1  A    between atoms: C_4  and  S_26 
REMARK    2  A    between atoms: C_5  and  C_7 
REMARK    3  A    between atoms: C_7  and  N_8 
REMARK    4  A    between atoms: N_8  and  C_9 
REMARK    5  A    between atoms: C_9  and  C_10 
REMARK    6  A    between atoms: C_10  and  C_11 
REMARK    7  A    between atoms: N_14  and  C_17 
REMARK    8  A    between atoms: S_26  and  C_33 
REMARK    9  A    between atoms: C_27  and  C_33 
ROOT
HETATM    1  C           1       4.711   0.398  -0.041  0.00  0.00    -0.008 A 
HETATM    2  C           1       5.520  -0.689   0.250  0.00  0.00     0.130 A 
HETATM    3  N           1       5.048  -1.912   0.575  0.00  0.00    -0.253 NA
HETATM    4  C           1       3.705  -2.052   0.610  0.00  0.00     0.101 A 
HETATM    5  C           1       2.815  -1.026   0.336  0.00  0.00     0.006 A 
HETATM    6  C           1       3.332   0.222   0.004  0.00  0.00     0.025 A 
HETATM    7  C           1       5.242   1.584  -0.356  0.00  0.00    -0.025 A 
HETATM    8  C           1       6.574   1.666  -0.763  0.00  0.00     0.013 A 
HETATM    9  C           1       7.128   2.903  -1.091  0.00  0.00     0.007 A 
HETATM   10  C           1       6.350   4.058  -1.014  0.00  0.00    -0.062 A 
HETATM   11  C           1       5.018   3.976  -0.608  0.00  0.00     0.007 A 
HETATM   12  C           1       4.464   2.739  -0.279  0.00  0.00     0.013 A 
HETATM   13  C           1       6.944   5.386  -1.367  0.00  0.00     0.048 C 
ENDROOT
BRANCH   5  14
HETATM   14  C           1       1.337  -1.254   0.394  0.00  0.00     0.308 C 
BRANCH  14  15
HETATM   15  N           1       0.649  -0.034   0.068  0.00  0.00     0.087 N 
HETATM   16  H           1       0.894   0.686   0.747  0.00  0.00     0.316 HD
BRANCH  15  17
HETATM   17  C           1      -0.763  -0.296   0.136  0.00  0.00     0.270 C 
BRANCH  17  18
HETATM   18  C           1      -1.533   0.973  -0.204  0.00  0.00     0.034 C 
BRANCH  18  19
HETATM   19  C           1      -3.028   0.696  -0.132  0.00  0.00    -0.010 C 
HETATM   20  C           1      -3.656   1.601   0.923  0.00  0.00     0.035 C 
HETATM   21  C           1      -5.180   1.503   0.901  0.00  0.00     0.272 C 
HETATM   22  N           1      -5.716   1.795  -0.429  0.00  0.00     0.088 N 
HETATM   23  C           1      -5.177   0.880  -1.436  0.00  0.00     0.272 C 
HETATM   24  C           1      -3.653   0.955  -1.500  0.00  0.00     0.035 C 
BRANCH  22  25
HETATM   25  C           1      -7.134   1.566  -0.345  0.00  0.00     0.268 C 
HETATM   26  C           1      -7.775   1.848  -1.697  0.00  0.00     0.037 C 
ENDBRANCH  22  25
ENDBRANCH  18  19
ENDBRANCH  17  18
ENDBRANCH  15  17
ENDBRANCH  14  15
ENDBRANCH   5  14
BRANCH   4  27
HETATM   27  S           1       3.026  -3.679   1.043  0.00  0.00    -0.105 SA
BRANCH  27  28
HETATM   28  C           1       1.299  -3.139   0.896  0.00  0.00     0.122 C 
BRANCH  28  29
HETATM   29  C           1       0.389  -4.287   1.201  0.00  0.00    -0.049 A 
HETATM   30  C           1       0.924  -5.532   1.534  0.00  0.00     0.008 A 
HETATM   31  C           1       0.075  -6.602   1.817  0.00  0.00     0.001 A 
HETATM   32  C           1      -1.308  -6.428   1.769  0.00  0.00     0.000 A 
HETATM   33  C           1      -1.843  -5.183   1.436  0.00  0.00     0.001 A 
HETATM   34  C           1      -0.994  -4.113   1.152  0.00  0.00     0.008 A 
ENDBRANCH  28  29
ENDBRANCH  27  28
ENDBRANCH   4  27
TORSDOF 9
