REMARK  9 active torsions:
REMARK  status: ('A' for Active; 'I' for Inactive)
REMARK    1  A    between atoms: C_4  and  S_25 
REMARK    2  A    between atoms: C_5  and  C_7 
REMARK    3  A    between atoms: C_7  and  N_8 
REMARK    4  A    between atoms: N_8  and  C_9 
REMARK    5  A    between atoms: C_9  and  C_10 
REMARK    6  A    between atoms: C_10  and  C_11 
REMARK    7  A    between atoms: N_14  and  C_17 
REMARK    8  A    between atoms: S_25  and  C_32 
REMARK    9  A    between atoms: C_26  and  C_32 
ROOT
HETATM    1  C           1       4.917   0.560  -0.082  0.00  0.00    -0.008 A 
HETATM    2  C           1       5.727  -0.527   0.208  0.00  0.00     0.130 A 
HETATM    3  N           1       5.254  -1.750   0.534  0.00  0.00    -0.253 NA
HETATM    4  C           1       3.911  -1.890   0.569  0.00  0.00     0.101 A 
HETATM    5  C           1       3.021  -0.863   0.294  0.00  0.00     0.006 A 
HETATM    6  C           1       3.538   0.385  -0.038  0.00  0.00     0.025 A 
HETATM    7  C           1       5.448   1.746  -0.398  0.00  0.00    -0.024 A 
HETATM    8  C           1       6.780   1.828  -0.804  0.00  0.00     0.014 A 
HETATM    9  C           1       7.334   3.066  -1.133  0.00  0.00     0.023 A 
HETATM   10  C           1       6.556   4.221  -1.055  0.00  0.00     0.044 A 
HETATM   11  C           1       5.224   4.139  -0.649  0.00  0.00     0.023 A 
HETATM   12  C           1       4.670   2.901  -0.320  0.00  0.00     0.014 A 
HETATM   13  C           1       7.077   5.385  -1.365  0.00  0.00     0.099 C 
HETATM   14  N           1       7.537   6.412  -1.638  0.00  0.00    -0.191 NA
ENDROOT
BRANCH   5  15
HETATM   15  C           1       1.543  -1.092   0.353  0.00  0.00     0.308 C 
BRANCH  15  16
HETATM   16  N           1       0.855   0.129   0.027  0.00  0.00     0.087 N 
HETATM   17  H           1       1.100   0.849   0.706  0.00  0.00     0.316 HD
BRANCH  16  18
HETATM   18  C           1      -0.557  -0.134   0.094  0.00  0.00     0.270 C 
BRANCH  18  19
HETATM   19  C           1      -1.327   1.136  -0.245  0.00  0.00     0.034 C 
BRANCH  19  20
HETATM   20  C           1      -2.822   0.858  -0.173  0.00  0.00    -0.010 C 
HETATM   21  C           1      -3.450   1.763   0.882  0.00  0.00     0.035 C 
HETATM   22  C           1      -4.974   1.666   0.860  0.00  0.00     0.272 C 
HETATM   23  N           1      -5.510   1.958  -0.470  0.00  0.00     0.088 N 
HETATM   24  C           1      -4.971   1.043  -1.477  0.00  0.00     0.272 C 
HETATM   25  C           1      -3.446   1.118  -1.541  0.00  0.00     0.035 C 
BRANCH  23  26
HETATM   26  C           1      -6.927   1.729  -0.386  0.00  0.00     0.268 C 
HETATM   27  C           1      -7.569   2.011  -1.738  0.00  0.00     0.037 C 
ENDBRANCH  23  26
ENDBRANCH  19  20
ENDBRANCH  18  19
ENDBRANCH  16  18
ENDBRANCH  15  16
ENDBRANCH   5  15
BRANCH   4  28
HETATM   28  S           1       3.232  -3.516   1.002  0.00  0.00    -0.105 SA
BRANCH  28  29
HETATM   29  C           1       1.505  -2.976   0.855  0.00  0.00     0.122 C 
BRANCH  29  30
HETATM   30  C           1       0.595  -4.125   1.160  0.00  0.00    -0.049 A 
HETATM   31  C           1       1.130  -5.369   1.492  0.00  0.00     0.008 A 
HETATM   32  C           1       0.281  -6.440   1.776  0.00  0.00     0.001 A 
HETATM   33  C           1      -1.102  -6.265   1.727  0.00  0.00     0.000 A 
HETATM   34  C           1      -1.636  -5.021   1.395  0.00  0.00     0.001 A 
HETATM   35  C           1      -0.788  -3.950   1.111  0.00  0.00     0.008 A 
ENDBRANCH  29  30
ENDBRANCH  28  29
ENDBRANCH   4  28
TORSDOF 9
