REMARK  9 active torsions:
REMARK  status: ('A' for Active; 'I' for Inactive)
REMARK    1  A    between atoms: C_4  and  S_28 
REMARK    2  A    between atoms: C_5  and  C_7 
REMARK    3  A    between atoms: C_7  and  N_8 
REMARK    4  A    between atoms: N_8  and  C_9 
REMARK    5  A    between atoms: C_9  and  C_10 
REMARK    6  A    between atoms: C_10  and  C_11 
REMARK    7  A    between atoms: N_14  and  C_17 
REMARK    8  A    between atoms: S_28  and  C_35 
REMARK    9  A    between atoms: C_29  and  C_35 
ROOT
HETATM    1  C           1       4.228  -0.006   0.062  0.00  0.00    -0.008 A 
HETATM    2  C           1       5.037  -1.093   0.353  0.00  0.00     0.130 A 
HETATM    3  N           1       4.565  -2.316   0.678  0.00  0.00    -0.253 NA
HETATM    4  C           1       3.222  -2.456   0.713  0.00  0.00     0.101 A 
HETATM    5  C           1       2.332  -1.430   0.439  0.00  0.00     0.006 A 
HETATM    6  C           1       2.849  -0.182   0.107  0.00  0.00     0.025 A 
HETATM    7  C           1       4.759   1.180  -0.253  0.00  0.00    -0.024 A 
HETATM    8  C           1       6.091   1.262  -0.660  0.00  0.00     0.014 A 
HETATM    9  C           1       6.645   2.499  -0.988  0.00  0.00     0.030 A 
HETATM   10  C           1       5.867   3.654  -0.911  0.00  0.00     0.029 A 
HETATM   11  C           1       4.535   3.572  -0.505  0.00  0.00     0.030 A 
HETATM   12  C           1       3.981   2.335  -0.176  0.00  0.00     0.014 A 
HETATM   13  N           1       6.369   4.777  -1.209  0.00  0.00    -0.390 N 
HETATM   14  C           1       5.549   5.994  -1.128  0.00  0.00     0.149 C 
HETATM   15  C           1       7.773   4.863  -1.637  0.00  0.00     0.149 C 
ENDROOT
BRANCH   5  16
HETATM   16  C           1       0.854  -1.658   0.497  0.00  0.00     0.308 C 
BRANCH  16  17
HETATM   17  N           1       0.166  -0.438   0.171  0.00  0.00     0.087 N 
HETATM   18  H           1       0.411   0.282   0.850  0.00  0.00     0.316 HD
BRANCH  17  19
HETATM   19  C           1      -1.246  -0.700   0.239  0.00  0.00     0.270 C 
BRANCH  19  20
HETATM   20  C           1      -2.016   0.569  -0.101  0.00  0.00     0.034 C 
BRANCH  20  21
HETATM   21  C           1      -3.512   0.292  -0.029  0.00  0.00    -0.010 C 
HETATM   22  C           1      -4.139   1.197   1.026  0.00  0.00     0.035 C 
HETATM   23  C           1      -5.663   1.099   1.004  0.00  0.00     0.272 C 
HETATM   24  N           1      -6.199   1.391  -0.326  0.00  0.00     0.088 N 
HETATM   25  C           1      -5.660   0.476  -1.333  0.00  0.00     0.272 C 
HETATM   26  C           1      -4.136   0.551  -1.397  0.00  0.00     0.035 C 
BRANCH  24  27
HETATM   27  C           1      -7.617   1.162  -0.242  0.00  0.00     0.268 C 
HETATM   28  C           1      -8.258   1.444  -1.594  0.00  0.00     0.037 C 
ENDBRANCH  24  27
ENDBRANCH  20  21
ENDBRANCH  19  20
ENDBRANCH  17  19
ENDBRANCH  16  17
ENDBRANCH   5  16
BRANCH   4  29
HETATM   29  S           1       2.543  -4.083   1.146  0.00  0.00    -0.105 SA
BRANCH  29  30
HETATM   30  C           1       0.816  -3.543   0.999  0.00  0.00     0.122 C 
BRANCH  30  31
HETATM   31  C           1      -0.094  -4.691   1.304  0.00  0.00    -0.049 A 
HETATM   32  C           1       0.440  -5.936   1.637  0.00  0.00     0.008 A 
HETATM   33  C           1      -0.408  -7.006   1.920  0.00  0.00     0.001 A 
HETATM   34  C           1      -1.791  -6.832   1.872  0.00  0.00     0.000 A 
HETATM   35  C           1      -2.326  -5.587   1.539  0.00  0.00     0.001 A 
HETATM   36  C           1      -1.477  -4.517   1.255  0.00  0.00     0.008 A 
ENDBRANCH  30  31
ENDBRANCH  29  30
ENDBRANCH   4  29
TORSDOF 9
