REMARK  9 active torsions:
REMARK  status: ('A' for Active; 'I' for Inactive)
REMARK    1  A    between atoms: C_4  and  S_28 
REMARK    2  A    between atoms: C_5  and  C_7 
REMARK    3  A    between atoms: C_7  and  N_8 
REMARK    4  A    between atoms: N_8  and  C_9 
REMARK    5  A    between atoms: C_9  and  C_10 
REMARK    6  A    between atoms: C_10  and  C_11 
REMARK    7  A    between atoms: N_14  and  C_17 
REMARK    8  A    between atoms: S_28  and  C_35 
REMARK    9  A    between atoms: C_29  and  C_35 
ROOT
HETATM    1  C           1      -2.761  -4.424   2.281  0.00  0.00    -0.008 A 
HETATM    2  C           1      -3.630  -4.399   1.201  0.00  0.00     0.130 A 
HETATM    3  N           1      -3.605  -3.451   0.239  0.00  0.00    -0.253 NA
HETATM    4  C           1      -2.669  -2.485   0.364  0.00  0.00     0.101 A 
HETATM    5  C           1      -1.757  -2.425   1.407  0.00  0.00     0.006 A 
HETATM    6  C           1      -1.808  -3.416   2.382  0.00  0.00     0.025 A 
HETATM    7  C           1      -2.837  -5.391   3.201  0.00  0.00    -0.025 A 
HETATM    8  C           1      -3.460  -5.143   4.424  0.00  0.00     0.012 A 
HETATM    9  C           1      -3.539  -6.152   5.383  0.00  0.00     0.001 A 
HETATM   10  C           1      -2.997  -7.409   5.120  0.00  0.00     0.000 A 
HETATM   11  C           1      -2.374  -7.658   3.896  0.00  0.00     0.001 A 
HETATM   12  C           1      -2.295  -6.649   2.937  0.00  0.00     0.012 A 
ENDROOT
BRANCH   5  13
HETATM   13  C           1      -0.746  -1.324   1.481  0.00  0.00     0.311 C 
BRANCH  13  14
HETATM   14  N           1      -0.912  -0.443   0.357  0.00  0.00     0.087 N 
HETATM   15  H           1      -0.764  -0.963  -0.508  0.00  0.00     0.316 HD
BRANCH  14  16
HETATM   16  C           1       0.075   0.596   0.467  0.00  0.00     0.270 C 
BRANCH  16  17
HETATM   17  C           1      -0.065   1.556  -0.708  0.00  0.00     0.034 C 
BRANCH  17  18
HETATM   18  C           1       0.981   2.657  -0.591  0.00  0.00    -0.010 C 
HETATM   19  C           1       1.816   2.425   0.664  0.00  0.00     0.035 C 
HETATM   20  C           1       3.002   3.386   0.726  0.00  0.00     0.273 C 
HETATM   21  N           1       3.827   3.297  -0.479  0.00  0.00     0.093 N 
HETATM   22  C           1       3.050   3.594  -1.683  0.00  0.00     0.273 C 
HETATM   23  C           1       1.866   2.641  -1.834  0.00  0.00     0.035 C 
BRANCH  21  24
HETATM   24  C           1       4.835   4.314  -0.346  0.00  0.00     0.223 C 
HETATM   25  C           1       5.578   4.176   0.974  0.00  0.00     0.036 C 
HETATM   26  C           1       6.979   4.727   0.714  0.00  0.00     0.002 C 
HETATM   27  C           1       7.093   4.915  -0.797  0.00  0.00     0.002 C 
HETATM   28  C           1       5.928   4.135  -1.385  0.00  0.00     0.036 C 
ENDBRANCH  21  24
ENDBRANCH  17  18
ENDBRANCH  16  17
ENDBRANCH  14  16
ENDBRANCH  13  14
ENDBRANCH   5  13
BRANCH   4  29
HETATM   29  S           1      -2.600  -1.191  -0.906  0.00  0.00    -0.105 SA
BRANCH  29  30
HETATM   30  C           1      -3.981  -1.879  -1.862  0.00  0.00     0.119 C 
BRANCH  30  31
HETATM   31  C           1      -4.233  -1.022  -3.064  0.00  0.00    -0.049 A 
HETATM   32  C           1      -5.253  -1.353  -3.955  0.00  0.00     0.008 A 
HETATM   33  C           1      -5.488  -0.555  -5.075  0.00  0.00     0.001 A 
HETATM   34  C           1      -4.701   0.575  -5.303  0.00  0.00     0.000 A 
HETATM   35  C           1      -3.681   0.906  -4.412  0.00  0.00     0.001 A 
HETATM   36  C           1      -3.446   0.107  -3.292  0.00  0.00     0.008 A 
ENDBRANCH  30  31
ENDBRANCH  29  30
ENDBRANCH   4  29
TORSDOF 9
