REMARK  9 active torsions:
REMARK  status: ('A' for Active; 'I' for Inactive)
REMARK    1  A    between atoms: C_2  and  C_17 
REMARK    2  A    between atoms: C_4  and  S_8 
REMARK    3  A    between atoms: C_5  and  C_7 
REMARK    4  A    between atoms: C_7  and  N_16 
REMARK    5  A    between atoms: S_8  and  C_9 
REMARK    6  A    between atoms: C_9  and  C_10 
REMARK    7  A    between atoms: N_16  and  C_18 
REMARK    8  A    between atoms: C_18  and  C_19 
REMARK    9  A    between atoms: C_19  and  N_20 
ROOT
HETATM    1  C           1       2.193  -4.082   0.312  0.00  0.00    -0.024 A 
HETATM    2  C           1       2.277  -5.429  -0.043  0.00  0.00     0.014 A 
HETATM    3  C           1       3.518  -6.063  -0.085  0.00  0.00     0.023 A 
HETATM    4  C           1       4.676  -5.351   0.227  0.00  0.00     0.044 A 
HETATM    5  C           1       4.592  -4.004   0.581  0.00  0.00     0.023 A 
HETATM    6  C           1       3.351  -3.370   0.624  0.00  0.00     0.014 A 
HETATM    7  C           1       5.845  -5.948   0.187  0.00  0.00     0.099 C 
HETATM    8  N           1       6.876  -6.474   0.152  0.00  0.00    -0.191 NA
ENDROOT
BRANCH   1   9
HETATM    9  C           1       1.003  -3.475   0.352  0.00  0.00    -0.008 A 
HETATM   10  C           1      -0.168  -4.209   0.456  0.00  0.00     0.130 A 
HETATM   11  N           1      -1.400  -3.657   0.501  0.00  0.00    -0.253 NA
HETATM   12  C           1      -1.461  -2.309   0.440  0.00  0.00     0.101 A 
HETATM   13  C           1      -0.348  -1.490   0.336  0.00  0.00     0.006 A 
HETATM   14  C           1       0.907  -2.088   0.291  0.00  0.00     0.025 A 
BRANCH  12  15
HETATM   15  S           1      -3.097  -1.524   0.499  0.00  0.00    -0.105 SA
BRANCH  15  16
HETATM   16  C           1      -3.989  -3.100   0.626  0.00  0.00     0.119 C 
BRANCH  16  17
HETATM   17  C           1      -5.461  -2.837   0.700  0.00  0.00    -0.049 A 
HETATM   18  C           1      -6.355  -3.902   0.803  0.00  0.00     0.008 A 
HETATM   19  C           1      -7.727  -3.656   0.871  0.00  0.00     0.001 A 
HETATM   20  C           1      -8.203  -2.346   0.836  0.00  0.00     0.000 A 
HETATM   21  C           1      -7.309  -1.281   0.733  0.00  0.00     0.001 A 
HETATM   22  C           1      -5.937  -1.526   0.665  0.00  0.00     0.008 A 
ENDBRANCH  16  17
ENDBRANCH  15  16
ENDBRANCH  12  15
BRANCH  13  23
HETATM   23  C           1      -0.492  -0.001   0.274  0.00  0.00     0.311 C 
BRANCH  23  24
HETATM   24  N           1       0.808   0.603   0.169  0.00  0.00     0.089 N 
HETATM   25  H           1       1.361   0.364   0.992  0.00  0.00     0.316 HD
BRANCH  24  26
HETATM   26  C           1       0.625   2.028   0.111  0.00  0.00     0.300 C 
BRANCH  26  27
HETATM   27  C           1       1.982   2.711  -0.001  0.00  0.00     0.302 C 
BRANCH  27  28
HETATM   28  N           1       1.798   4.136  -0.058  0.00  0.00     0.093 N 
HETATM   29  C           1       3.139   4.738  -0.165  0.00  0.00     0.302 C 
HETATM   30  C           1       3.099   6.246  -0.492  0.00  0.00     0.302 C 
HETATM   31  N           1       2.327   6.550  -1.710  0.00  0.00     0.087 N 
HETATM   32  C           1       2.163   7.978  -1.757  0.00  0.00     0.310 C 
HETATM   33  C           1       0.986   5.948  -1.603  0.00  0.00     0.302 C 
HETATM   34  C           1       1.026   4.440  -1.276  0.00  0.00     0.302 C 
ENDBRANCH  27  28
ENDBRANCH  26  27
ENDBRANCH  24  26
ENDBRANCH  23  24
ENDBRANCH  13  23
ENDBRANCH   1   9
TORSDOF 9
