REMARK  8 active torsions:
REMARK  status: ('A' for Active; 'I' for Inactive)
REMARK    1  A    between atoms: C_4  and  S_20 
REMARK    2  A    between atoms: C_5  and  C_8 
REMARK    3  A    between atoms: C_8  and  N_9 
REMARK    4  A    between atoms: S_20  and  C_21 
REMARK    5  A    between atoms: C_21  and  C_22 
REMARK    6  A    between atoms: N_9  and  C_11 
REMARK    7  A    between atoms: C_11  and  C_12 
REMARK    8  A    between atoms: C_12  and  N_13 
ROOT
HETATM    1  C           1       0.670  -5.252   0.507  0.00  0.00     0.137 A 
HETATM    2  C           1       1.840  -4.517   0.404  0.00  0.00     0.029 A 
HETATM    3  N           1      -0.562  -4.699   0.553  0.00  0.00    -0.252 NA
HETATM    4  C           1      -0.624  -3.351   0.492  0.00  0.00     0.101 A 
HETATM    5  C           1       0.489  -2.532   0.388  0.00  0.00     0.006 A 
HETATM    6  C           1       1.744  -3.131   0.343  0.00  0.00     0.032 A 
HETATM    7 Br           1       3.515  -5.372   0.347  0.00  0.00    -0.050 Br
ENDROOT
BRANCH   5   8
HETATM    8  C           1       0.345  -1.044   0.325  0.00  0.00     0.311 C 
BRANCH   8   9
HETATM    9  N           1       1.646  -0.439   0.220  0.00  0.00     0.089 N 
HETATM   10  H           1       2.199  -0.678   1.043  0.00  0.00     0.316 HD
BRANCH   9  11
HETATM   11  C           1       1.462   0.986   0.163  0.00  0.00     0.300 C 
BRANCH  11  12
HETATM   12  C           1       2.819   1.669   0.051  0.00  0.00     0.302 C 
BRANCH  12  13
HETATM   13  N           1       2.636   3.094  -0.006  0.00  0.00     0.093 N 
HETATM   14  C           1       3.977   3.695  -0.113  0.00  0.00     0.302 C 
HETATM   15  C           1       3.936   5.203  -0.440  0.00  0.00     0.302 C 
HETATM   16  N           1       3.164   5.507  -1.658  0.00  0.00     0.087 N 
HETATM   17  C           1       3.000   6.935  -1.705  0.00  0.00     0.310 C 
HETATM   18  C           1       1.823   4.906  -1.551  0.00  0.00     0.302 C 
HETATM   19  C           1       1.864   3.397  -1.224  0.00  0.00     0.302 C 
ENDBRANCH  12  13
ENDBRANCH  11  12
ENDBRANCH   9  11
ENDBRANCH   8   9
ENDBRANCH   5   8
BRANCH   4  20
HETATM   20  S           1      -2.260  -2.567   0.550  0.00  0.00    -0.105 SA
BRANCH  20  21
HETATM   21  C           1      -3.151  -4.142   0.678  0.00  0.00     0.119 C 
BRANCH  21  22
HETATM   22  C           1      -4.623  -3.879   0.751  0.00  0.00    -0.049 A 
HETATM   23  C           1      -5.518  -4.944   0.854  0.00  0.00     0.008 A 
HETATM   24  C           1      -6.889  -4.699   0.923  0.00  0.00     0.001 A 
HETATM   25  C           1      -7.366  -3.388   0.888  0.00  0.00     0.000 A 
HETATM   26  C           1      -6.471  -2.323   0.785  0.00  0.00     0.001 A 
HETATM   27  C           1      -5.100  -2.569   0.716  0.00  0.00     0.008 A 
ENDBRANCH  21  22
ENDBRANCH  20  21
ENDBRANCH   4  20
TORSDOF 8
