REMARK  9 active torsions:
REMARK  status: ('A' for Active; 'I' for Inactive)
REMARK    1  A    between atoms: C_2  and  C_17 
REMARK    2  A    between atoms: C_4  and  S_8 
REMARK    3  A    between atoms: C_5  and  C_7 
REMARK    4  A    between atoms: C_7  and  N_16 
REMARK    5  A    between atoms: S_8  and  C_9 
REMARK    6  A    between atoms: C_9  and  C_10 
REMARK    7  A    between atoms: N_16  and  C_18 
REMARK    8  A    between atoms: C_18  and  C_19 
REMARK    9  A    between atoms: C_19  and  N_20 
ROOT
HETATM    1  C           1      -0.059  -4.315   0.457  0.00  0.00     0.130 A 
HETATM    2  C           1       1.112  -3.581   0.354  0.00  0.00    -0.005 A 
HETATM    3  N           1      -1.291  -3.763   0.503  0.00  0.00    -0.253 NA
HETATM    4  C           1      -1.352  -2.415   0.442  0.00  0.00     0.101 A 
HETATM    5  C           1      -0.239  -1.596   0.338  0.00  0.00     0.006 A 
HETATM    6  C           1       1.016  -2.194   0.293  0.00  0.00     0.025 A 
ENDROOT
BRANCH   5   7
HETATM    7  C           1      -0.383  -0.107   0.275  0.00  0.00     0.311 C 
BRANCH   7   8
HETATM    8  N           1       0.918   0.497   0.170  0.00  0.00     0.089 N 
HETATM    9  H           1       1.471   0.258   0.993  0.00  0.00     0.316 HD
BRANCH   8  10
HETATM   10  C           1       0.734   1.922   0.113  0.00  0.00     0.300 C 
BRANCH  10  11
HETATM   11  C           1       2.091   2.605   0.001  0.00  0.00     0.302 C 
BRANCH  11  12
HETATM   12  N           1       1.908   4.030  -0.056  0.00  0.00     0.093 N 
HETATM   13  C           1       3.248   4.632  -0.164  0.00  0.00     0.302 C 
HETATM   14  C           1       3.208   6.140  -0.490  0.00  0.00     0.302 C 
HETATM   15  N           1       2.436   6.444  -1.708  0.00  0.00     0.087 N 
HETATM   16  C           1       2.272   7.872  -1.755  0.00  0.00     0.310 C 
HETATM   17  C           1       1.095   5.842  -1.601  0.00  0.00     0.302 C 
HETATM   18  C           1       1.136   4.334  -1.274  0.00  0.00     0.302 C 
ENDBRANCH  11  12
ENDBRANCH  10  11
ENDBRANCH   8  10
ENDBRANCH   7   8
ENDBRANCH   5   7
BRANCH   4  19
HETATM   19  S           1      -2.988  -1.630   0.500  0.00  0.00    -0.105 SA
BRANCH  19  20
HETATM   20  C           1      -3.880  -3.206   0.628  0.00  0.00     0.119 C 
BRANCH  20  21
HETATM   21  C           1      -5.351  -2.943   0.701  0.00  0.00    -0.049 A 
HETATM   22  C           1      -6.246  -4.008   0.804  0.00  0.00     0.008 A 
HETATM   23  C           1      -7.617  -3.762   0.873  0.00  0.00     0.001 A 
HETATM   24  C           1      -8.094  -2.452   0.838  0.00  0.00     0.000 A 
HETATM   25  C           1      -7.199  -1.387   0.735  0.00  0.00     0.001 A 
HETATM   26  C           1      -5.828  -1.632   0.666  0.00  0.00     0.008 A 
ENDBRANCH  20  21
ENDBRANCH  19  20
ENDBRANCH   4  19
BRANCH   2  27
HETATM   27  C           1       2.302  -4.188   0.313  0.00  0.00     0.014 A 
HETATM   28  C           1       2.386  -5.535  -0.041  0.00  0.00     0.018 A 
HETATM   29  C           1       3.628  -6.169  -0.083  0.00  0.00     0.043 A 
HETATM   30  C           1       4.785  -5.457   0.229  0.00  0.00     0.119 A 
HETATM   31  F           1       5.960  -6.057   0.189  0.00  0.00    -0.206 F 
HETATM   32  C           1       4.702  -4.110   0.583  0.00  0.00     0.085 A 
HETATM   33  C           1       3.460  -3.476   0.625  0.00  0.00     0.130 A 
HETATM   34  F           1       3.381  -2.202   0.960  0.00  0.00    -0.205 F 
ENDBRANCH   2  27
TORSDOF 9
