REMARK  9 active torsions:
REMARK  status: ('A' for Active; 'I' for Inactive)
REMARK    1  A    between atoms: C_2  and  C_17 
REMARK    2  A    between atoms: C_4  and  S_8 
REMARK    3  A    between atoms: C_5  and  C_7 
REMARK    4  A    between atoms: C_7  and  N_16 
REMARK    5  A    between atoms: S_8  and  C_9 
REMARK    6  A    between atoms: C_9  and  C_10 
REMARK    7  A    between atoms: N_16  and  C_18 
REMARK    8  A    between atoms: C_18  and  C_19 
REMARK    9  A    between atoms: C_19  and  N_20 
ROOT
HETATM    1  C           1      -0.059  -4.312   0.458  0.00  0.00     0.130 A 
HETATM    2  C           1       1.112  -3.577   0.354  0.00  0.00    -0.008 A 
HETATM    3  N           1      -1.291  -3.759   0.504  0.00  0.00    -0.253 NA
HETATM    4  C           1      -1.352  -2.411   0.443  0.00  0.00     0.101 A 
HETATM    5  C           1      -0.239  -1.593   0.339  0.00  0.00     0.006 A 
HETATM    6  C           1       1.016  -2.191   0.294  0.00  0.00     0.025 A 
ENDROOT
BRANCH   5   7
HETATM    7  C           1      -0.383  -0.104   0.276  0.00  0.00     0.311 C 
BRANCH   7   8
HETATM    8  N           1       0.917   0.500   0.171  0.00  0.00     0.089 N 
HETATM    9  H           1       1.470   0.262   0.994  0.00  0.00     0.316 HD
BRANCH   8  10
HETATM   10  C           1       0.734   1.926   0.114  0.00  0.00     0.300 C 
BRANCH  10  11
HETATM   11  C           1       2.091   2.608   0.002  0.00  0.00     0.302 C 
BRANCH  11  12
HETATM   12  N           1       1.907   4.034  -0.056  0.00  0.00     0.093 N 
HETATM   13  C           1       3.248   4.635  -0.163  0.00  0.00     0.302 C 
HETATM   14  C           1       3.208   6.143  -0.489  0.00  0.00     0.302 C 
HETATM   15  N           1       2.436   6.447  -1.707  0.00  0.00     0.087 N 
HETATM   16  C           1       2.272   7.875  -1.754  0.00  0.00     0.310 C 
HETATM   17  C           1       1.095   5.846  -1.600  0.00  0.00     0.302 C 
HETATM   18  C           1       1.135   4.337  -1.273  0.00  0.00     0.302 C 
ENDBRANCH  11  12
ENDBRANCH  10  11
ENDBRANCH   8  10
ENDBRANCH   7   8
ENDBRANCH   5   7
BRANCH   4  19
HETATM   19  S           1      -2.988  -1.627   0.501  0.00  0.00    -0.105 SA
BRANCH  19  20
HETATM   20  C           1      -3.880  -3.202   0.628  0.00  0.00     0.119 C 
BRANCH  20  21
HETATM   21  C           1      -5.352  -2.939   0.702  0.00  0.00    -0.049 A 
HETATM   22  C           1      -6.246  -4.004   0.805  0.00  0.00     0.008 A 
HETATM   23  C           1      -7.618  -3.759   0.873  0.00  0.00     0.001 A 
HETATM   24  C           1      -8.094  -2.449   0.839  0.00  0.00     0.000 A 
HETATM   25  C           1      -7.200  -1.384   0.736  0.00  0.00     0.001 A 
HETATM   26  C           1      -5.828  -1.629   0.667  0.00  0.00     0.008 A 
ENDBRANCH  20  21
ENDBRANCH  19  20
ENDBRANCH   4  19
BRANCH   2  27
HETATM   27  C           1       2.302  -4.185   0.314  0.00  0.00    -0.024 A 
HETATM   28  C           1       2.386  -5.532  -0.040  0.00  0.00     0.015 A 
HETATM   29  C           1       3.627  -6.166  -0.083  0.00  0.00     0.043 A 
HETATM   30  C           1       4.785  -5.453   0.229  0.00  0.00     0.116 A 
HETATM   31  F           1       5.960  -6.053   0.190  0.00  0.00    -0.206 F 
HETATM   32  C           1       4.702  -4.107   0.584  0.00  0.00     0.043 A 
HETATM   33  C           1       3.460  -3.473   0.626  0.00  0.00     0.015 A 
ENDBRANCH   2  27
TORSDOF 9
