REMARK  10 active torsions:
REMARK  status: ('A' for Active; 'I' for Inactive)
REMARK    1  A    between atoms: C_4  and  S_16 
REMARK    2  A    between atoms: C_5  and  C_7 
REMARK    3  A    between atoms: C_7  and  N_8 
REMARK    4  A    between atoms: N_8  and  C_9 
REMARK    5  A    between atoms: C_9  and  C_10 
REMARK    6  A    between atoms: C_10  and  C_11 
REMARK    7  A    between atoms: C_11  and  C_12 
REMARK    8  A    between atoms: C_12  and  N_13 
REMARK    9  A    between atoms: S_16  and  C_23 
REMARK   10  A    between atoms: C_17  and  C_23 
ROOT
HETATM    1  C           1       5.402   1.470  -0.279  0.00  0.00     0.020 A 
HETATM    2  C           1       6.211   0.383   0.012  0.00  0.00     0.118 A 
HETATM    3  N           1       5.739  -0.840   0.337  0.00  0.00    -0.254 NA
HETATM    4  C           1       4.395  -0.980   0.372  0.00  0.00     0.101 A 
HETATM    5  C           1       3.506   0.046   0.097  0.00  0.00     0.005 A 
HETATM    6  C           1       4.023   1.294  -0.234  0.00  0.00     0.013 A 
ENDROOT
BRANCH   5   7
HETATM    7  C           1       2.027  -0.182   0.156  0.00  0.00     0.308 C 
BRANCH   7   8
HETATM    8  N           1       1.340   1.038  -0.170  0.00  0.00     0.087 N 
HETATM    9  H           1       1.585   1.758   0.509  0.00  0.00     0.316 HD
BRANCH   8  10
HETATM   10  C           1      -0.072   0.776  -0.102  0.00  0.00     0.270 C 
BRANCH  10  11
HETATM   11  C           1      -0.842   2.045  -0.442  0.00  0.00     0.032 C 
BRANCH  11  12
HETATM   12  C           1      -2.338   1.768  -0.370  0.00  0.00     0.032 C 
BRANCH  12  13
HETATM   13  C           1      -3.107   3.037  -0.710  0.00  0.00     0.271 C 
BRANCH  13  14
HETATM   14  N           1      -4.520   2.775  -0.642  0.00  0.00     0.080 N 
HETATM   15  C           1      -5.207   3.995  -0.968  0.00  0.00     0.309 C 
HETATM   16  C           1      -4.834   1.810  -1.661  0.00  0.00     0.309 C 
ENDBRANCH  13  14
ENDBRANCH  12  13
ENDBRANCH  11  12
ENDBRANCH  10  11
ENDBRANCH   8  10
ENDBRANCH   7   8
ENDBRANCH   5   7
BRANCH   4  17
HETATM   17  S           1       3.717  -2.607   0.805  0.00  0.00    -0.105 SA
BRANCH  17  18
HETATM   18  C           1       1.990  -2.067   0.658  0.00  0.00     0.122 C 
BRANCH  18  19
HETATM   19  C           1       1.080  -3.215   0.963  0.00  0.00    -0.049 A 
HETATM   20  C           1       1.614  -4.460   1.295  0.00  0.00     0.008 A 
HETATM   21  C           1       0.766  -5.530   1.579  0.00  0.00     0.001 A 
HETATM   22  C           1      -0.617  -5.356   1.531  0.00  0.00     0.000 A 
HETATM   23  C           1      -1.152  -4.111   1.198  0.00  0.00     0.001 A 
HETATM   24  C           1      -0.303  -3.041   0.914  0.00  0.00     0.008 A 
ENDBRANCH  18  19
ENDBRANCH  17  18
ENDBRANCH   4  17
TORSDOF 10
