REMARK  9 active torsions:
REMARK  status: ('A' for Active; 'I' for Inactive)
REMARK    1  A    between atoms: C_4  and  S_22 
REMARK    2  A    between atoms: C_5  and  C_7 
REMARK    3  A    between atoms: C_7  and  N_8 
REMARK    4  A    between atoms: N_8  and  C_9 
REMARK    5  A    between atoms: C_9  and  C_10 
REMARK    6  A    between atoms: C_13  and  C_21 
REMARK    7  A    between atoms: N_16  and  C_21 
REMARK    8  A    between atoms: S_22  and  C_29 
REMARK    9  A    between atoms: C_23  and  C_29 
ROOT
HETATM    1  C           1       1.773   4.090  -0.789  0.00  0.00     0.311 C 
ENDROOT
BRANCH   1   2
HETATM    2  C           1       3.211   3.688  -0.680  0.00  0.00     0.005 A 
HETATM    3  C           1       3.563   2.393  -0.334  0.00  0.00     0.101 A 
HETATM    4  N           1       4.839   1.967  -0.219  0.00  0.00    -0.254 NA
HETATM    5  C           1       5.806   2.879  -0.460  0.00  0.00     0.118 A 
HETATM    6  C           1       5.554   4.195  -0.811  0.00  0.00     0.020 A 
HETATM    7  C           1       4.229   4.604  -0.922  0.00  0.00     0.013 A 
BRANCH   3   8
HETATM    8  S           1       2.232   1.200  -0.018  0.00  0.00    -0.105 SA
BRANCH   8   9
HETATM    9  C           1       3.369  -0.166   0.347  0.00  0.00     0.119 C 
BRANCH   9  10
HETATM   10  C           1       2.583  -1.397   0.674  0.00  0.00    -0.049 A 
HETATM   11  C           1       2.820  -2.079   1.868  0.00  0.00     0.008 A 
HETATM   12  C           1       2.087  -3.226   2.172  0.00  0.00     0.001 A 
HETATM   13  C           1       1.118  -3.692   1.284  0.00  0.00     0.000 A 
HETATM   14  C           1       0.882  -3.010   0.090  0.00  0.00     0.001 A 
HETATM   15  C           1       1.614  -1.862  -0.214  0.00  0.00     0.008 A 
ENDBRANCH   9  10
ENDBRANCH   8   9
ENDBRANCH   3   8
ENDBRANCH   1   2
BRANCH   1  16
HETATM   16  N           1       0.934   2.961  -0.489  0.00  0.00     0.091 N 
HETATM   17  H           1       1.116   2.215  -1.161  0.00  0.00     0.316 HD
BRANCH  16  18
HETATM   18  C           1      -0.434   3.389  -0.606  0.00  0.00     0.308 C 
BRANCH  18  19
HETATM   19  C           1      -1.344   2.240  -0.301  0.00  0.00    -0.030 A 
HETATM   20  C           1      -0.809   0.995   0.032  0.00  0.00     0.009 A 
HETATM   21  C           1      -1.658  -0.075   0.316  0.00  0.00     0.009 A 
HETATM   22  C           1      -3.041   0.100   0.267  0.00  0.00    -0.030 A 
HETATM   23  C           1      -3.575   1.344  -0.065  0.00  0.00     0.009 A 
HETATM   24  C           1      -2.727   2.414  -0.349  0.00  0.00     0.009 A 
BRANCH  22  25
HETATM   25  C           1      -3.951  -1.049   0.572  0.00  0.00     0.311 C 
BRANCH  25  26
HETATM   26  N           1      -3.167  -2.213   0.883  0.00  0.00     0.092 N 
HETATM   27  C           1      -4.068  -3.324   1.178  0.00  0.00     0.273 C 
HETATM   28  C           1      -4.598  -3.731  -0.186  0.00  0.00     0.032 C 
HETATM   29  C           1      -3.539  -3.267  -1.179  0.00  0.00     0.032 C 
HETATM   30  C           1      -2.462  -2.612  -0.332  0.00  0.00     0.273 C 
ENDBRANCH  25  26
ENDBRANCH  22  25
ENDBRANCH  18  19
ENDBRANCH  16  18
ENDBRANCH   1  16
TORSDOF 9
