REMARK  10 active torsions:
REMARK  status: ('A' for Active; 'I' for Inactive)
REMARK    1  A    between atoms: C_2  and  C_17 
REMARK    2  A    between atoms: C_4  and  S_8 
REMARK    3  A    between atoms: C_5  and  C_7 
REMARK    4  A    between atoms: C_7  and  N_16 
REMARK    5  A    between atoms: S_8  and  C_9 
REMARK    6  A    between atoms: C_9  and  C_10 
REMARK    7  A    between atoms: N_16  and  C_18 
REMARK    8  A    between atoms: C_18  and  C_19 
REMARK    9  A    between atoms: C_19  and  N_20 
REMARK   10  A    between atoms: C_29  and  O_32 
ROOT
HETATM    1  C           1      -0.490  -4.013   0.422  0.00  0.00     0.130 A 
HETATM    2  C           1       0.680  -3.278   0.318  0.00  0.00    -0.008 A 
HETATM    3  N           1      -1.722  -3.460   0.468  0.00  0.00    -0.253 NA
HETATM    4  C           1      -1.784  -2.112   0.407  0.00  0.00     0.101 A 
HETATM    5  C           1      -0.671  -1.294   0.303  0.00  0.00     0.006 A 
HETATM    6  C           1       0.584  -1.892   0.258  0.00  0.00     0.025 A 
ENDROOT
BRANCH   5   7
HETATM    7  C           1      -0.815   0.195   0.240  0.00  0.00     0.311 C 
BRANCH   7   8
HETATM    8  N           1       0.486   0.799   0.135  0.00  0.00     0.089 N 
HETATM    9  H           1       1.039   0.560   0.958  0.00  0.00     0.316 HD
BRANCH   8  10
HETATM   10  C           1       0.302   2.224   0.078  0.00  0.00     0.300 C 
BRANCH  10  11
HETATM   11  C           1       1.659   2.907  -0.034  0.00  0.00     0.302 C 
BRANCH  11  12
HETATM   12  N           1       1.476   4.332  -0.092  0.00  0.00     0.093 N 
HETATM   13  C           1       2.817   4.934  -0.199  0.00  0.00     0.302 C 
HETATM   14  C           1       2.776   6.442  -0.525  0.00  0.00     0.302 C 
HETATM   15  N           1       2.004   6.746  -1.743  0.00  0.00     0.087 N 
HETATM   16  C           1       1.840   8.174  -1.790  0.00  0.00     0.310 C 
HETATM   17  C           1       0.663   6.144  -1.636  0.00  0.00     0.302 C 
HETATM   18  C           1       0.704   4.636  -1.309  0.00  0.00     0.302 C 
ENDBRANCH  11  12
ENDBRANCH  10  11
ENDBRANCH   8  10
ENDBRANCH   7   8
ENDBRANCH   5   7
BRANCH   4  19
HETATM   19  S           1      -3.420  -1.328   0.465  0.00  0.00    -0.105 SA
BRANCH  19  20
HETATM   20  C           1      -4.311  -2.904   0.592  0.00  0.00     0.119 C 
BRANCH  20  21
HETATM   21  C           1      -5.783  -2.640   0.666  0.00  0.00    -0.049 A 
HETATM   22  C           1      -6.678  -3.705   0.769  0.00  0.00     0.008 A 
HETATM   23  C           1      -8.049  -3.460   0.837  0.00  0.00     0.001 A 
HETATM   24  C           1      -8.526  -2.150   0.803  0.00  0.00     0.000 A 
HETATM   25  C           1      -7.631  -1.085   0.700  0.00  0.00     0.001 A 
HETATM   26  C           1      -6.260  -1.330   0.631  0.00  0.00     0.008 A 
ENDBRANCH  20  21
ENDBRANCH  19  20
ENDBRANCH   4  19
BRANCH   2  27
HETATM   27  C           1       1.870  -3.886   0.278  0.00  0.00    -0.024 A 
HETATM   28  C           1       1.954  -5.233  -0.076  0.00  0.00     0.015 A 
HETATM   29  C           1       3.196  -5.867  -0.119  0.00  0.00     0.037 A 
HETATM   30  C           1       4.354  -5.154   0.193  0.00  0.00     0.068 A 
HETATM   31  C           1       4.270  -3.808   0.548  0.00  0.00     0.037 A 
HETATM   32  C           1       3.028  -3.174   0.590  0.00  0.00     0.015 A 
BRANCH  30  33
HETATM   33  O           1       5.560  -5.770   0.152  0.00  0.00    -0.356 OA
HETATM   34  C           1       6.586  -4.880   0.499  0.00  0.00     0.210 C 
ENDBRANCH  30  33
ENDBRANCH   2  27
TORSDOF 10
