REMARK  10 active torsions:
REMARK  status: ('A' for Active; 'I' for Inactive)
REMARK    1  A    between atoms: C_2  and  C_17 
REMARK    2  A    between atoms: C_4  and  S_8 
REMARK    3  A    between atoms: C_5  and  C_7 
REMARK    4  A    between atoms: C_7  and  N_16 
REMARK    5  A    between atoms: S_8  and  C_9 
REMARK    6  A    between atoms: C_9  and  C_10 
REMARK    7  A    between atoms: N_16  and  C_18 
REMARK    8  A    between atoms: C_18  and  C_19 
REMARK    9  A    between atoms: C_19  and  N_20 
REMARK   10  A    between atoms: C_29  and  N_32 
ROOT
HETATM    1  C           1      -0.812  -3.588   0.439  0.00  0.00     0.130 A 
HETATM    2  C           1       0.359  -2.854   0.336  0.00  0.00    -0.008 A 
HETATM    3  N           1      -2.044  -3.036   0.485  0.00  0.00    -0.253 NA
HETATM    4  C           1      -2.106  -1.688   0.424  0.00  0.00     0.101 A 
HETATM    5  C           1      -0.992  -0.869   0.320  0.00  0.00     0.006 A 
HETATM    6  C           1       0.263  -1.467   0.275  0.00  0.00     0.025 A 
ENDROOT
BRANCH   5   7
HETATM    7  C           1      -1.137   0.620   0.257  0.00  0.00     0.311 C 
BRANCH   7   8
HETATM    8  N           1       0.164   1.224   0.152  0.00  0.00     0.089 N 
HETATM    9  H           1       0.717   0.985   0.976  0.00  0.00     0.316 HD
BRANCH   8  10
HETATM   10  C           1      -0.019   2.649   0.095  0.00  0.00     0.300 C 
BRANCH  10  11
HETATM   11  C           1       1.337   3.332  -0.017  0.00  0.00     0.302 C 
BRANCH  11  12
HETATM   12  N           1       1.154   4.757  -0.074  0.00  0.00     0.093 N 
HETATM   13  C           1       2.495   5.359  -0.181  0.00  0.00     0.302 C 
HETATM   14  C           1       2.454   6.867  -0.508  0.00  0.00     0.302 C 
HETATM   15  N           1       1.683   7.171  -1.726  0.00  0.00     0.087 N 
HETATM   16  C           1       1.519   8.599  -1.773  0.00  0.00     0.310 C 
HETATM   17  C           1       0.342   6.569  -1.619  0.00  0.00     0.302 C 
HETATM   18  C           1       0.382   5.061  -1.292  0.00  0.00     0.302 C 
ENDBRANCH  11  12
ENDBRANCH  10  11
ENDBRANCH   8  10
ENDBRANCH   7   8
ENDBRANCH   5   7
BRANCH   4  19
HETATM   19  S           1      -3.741  -0.903   0.482  0.00  0.00    -0.105 SA
BRANCH  19  20
HETATM   20  C           1      -4.633  -2.479   0.610  0.00  0.00     0.119 C 
BRANCH  20  21
HETATM   21  C           1      -6.105  -2.215   0.683  0.00  0.00    -0.049 A 
HETATM   22  C           1      -6.999  -3.281   0.787  0.00  0.00     0.008 A 
HETATM   23  C           1      -8.371  -3.035   0.855  0.00  0.00     0.001 A 
HETATM   24  C           1      -8.847  -1.725   0.820  0.00  0.00     0.000 A 
HETATM   25  C           1      -7.953  -0.660   0.717  0.00  0.00     0.001 A 
HETATM   26  C           1      -6.581  -0.905   0.649  0.00  0.00     0.008 A 
ENDBRANCH  20  21
ENDBRANCH  19  20
ENDBRANCH   4  19
BRANCH   2  27
HETATM   27  C           1       1.549  -3.461   0.295  0.00  0.00    -0.024 A 
HETATM   28  C           1       1.633  -4.808  -0.059  0.00  0.00     0.014 A 
HETATM   29  C           1       2.874  -5.442  -0.101  0.00  0.00     0.030 A 
HETATM   30  C           1       4.032  -4.730   0.211  0.00  0.00     0.029 A 
HETATM   31  C           1       3.948  -3.383   0.565  0.00  0.00     0.030 A 
HETATM   32  C           1       2.707  -2.749   0.607  0.00  0.00     0.014 A 
BRANCH  30  33
HETATM   33  N           1       5.159  -5.305   0.173  0.00  0.00    -0.390 N 
HETATM   34  C           1       6.379  -4.554   0.501  0.00  0.00     0.149 C 
HETATM   35  C           1       5.247  -6.724  -0.201  0.00  0.00     0.149 C 
ENDBRANCH  30  33
ENDBRANCH   2  27
TORSDOF 10
