REMARK  9 active torsions:
REMARK  status: ('A' for Active; 'I' for Inactive)
REMARK    1  A    between atoms: C_2  and  C_17 
REMARK    2  A    between atoms: C_4  and  S_8 
REMARK    3  A    between atoms: C_5  and  C_7 
REMARK    4  A    between atoms: C_7  and  N_16 
REMARK    5  A    between atoms: S_8  and  C_9 
REMARK    6  A    between atoms: C_9  and  C_10 
REMARK    7  A    between atoms: N_16  and  C_18 
REMARK    8  A    between atoms: C_18  and  C_19 
REMARK    9  A    between atoms: C_19  and  N_20 
ROOT
HETATM    1  C           1      -0.056  -4.313   0.458  0.00  0.00     0.130 A 
HETATM    2  C           1       1.115  -3.579   0.354  0.00  0.00    -0.008 A 
HETATM    3  N           1      -1.288  -3.761   0.504  0.00  0.00    -0.253 NA
HETATM    4  C           1      -1.349  -2.413   0.443  0.00  0.00     0.101 A 
HETATM    5  C           1      -0.236  -1.594   0.339  0.00  0.00     0.006 A 
HETATM    6  C           1       1.019  -2.192   0.294  0.00  0.00     0.025 A 
ENDROOT
BRANCH   5   7
HETATM    7  C           1      -0.380  -0.105   0.276  0.00  0.00     0.311 C 
BRANCH   7   8
HETATM    8  N           1       0.920   0.499   0.171  0.00  0.00     0.089 N 
HETATM    9  H           1       1.474   0.260   0.994  0.00  0.00     0.316 HD
BRANCH   8  10
HETATM   10  C           1       0.737   1.924   0.114  0.00  0.00     0.300 C 
BRANCH  10  11
HETATM   11  C           1       2.094   2.607   0.002  0.00  0.00     0.302 C 
BRANCH  11  12
HETATM   12  N           1       1.910   4.032  -0.056  0.00  0.00     0.093 N 
HETATM   13  C           1       3.251   4.633  -0.163  0.00  0.00     0.302 C 
HETATM   14  C           1       3.211   6.142  -0.490  0.00  0.00     0.302 C 
HETATM   15  N           1       2.439   6.445  -1.707  0.00  0.00     0.087 N 
HETATM   16  C           1       2.275   7.873  -1.754  0.00  0.00     0.310 C 
HETATM   17  C           1       1.098   5.844  -1.600  0.00  0.00     0.302 C 
HETATM   18  C           1       1.138   4.336  -1.273  0.00  0.00     0.302 C 
ENDBRANCH  11  12
ENDBRANCH  10  11
ENDBRANCH   8  10
ENDBRANCH   7   8
ENDBRANCH   5   7
BRANCH   4  19
HETATM   19  S           1      -2.985  -1.628   0.501  0.00  0.00    -0.105 SA
BRANCH  19  20
HETATM   20  C           1      -3.877  -3.204   0.628  0.00  0.00     0.119 C 
BRANCH  20  21
HETATM   21  C           1      -5.348  -2.941   0.702  0.00  0.00    -0.049 A 
HETATM   22  C           1      -6.243  -4.006   0.805  0.00  0.00     0.008 A 
HETATM   23  C           1      -7.615  -3.761   0.873  0.00  0.00     0.001 A 
HETATM   24  C           1      -8.091  -2.450   0.839  0.00  0.00     0.000 A 
HETATM   25  C           1      -7.197  -1.385   0.736  0.00  0.00     0.001 A 
HETATM   26  C           1      -5.825  -1.630   0.667  0.00  0.00     0.008 A 
ENDBRANCH  20  21
ENDBRANCH  19  20
ENDBRANCH   4  19
BRANCH   2  27
HETATM   27  C           1       2.305  -4.187   0.314  0.00  0.00    -0.025 A 
HETATM   28  C           1       2.389  -5.533  -0.040  0.00  0.00     0.012 A 
HETATM   29  C           1       3.630  -6.167  -0.083  0.00  0.00     0.001 A 
HETATM   30  C           1       4.788  -5.455   0.229  0.00  0.00     0.000 A 
HETATM   31  C           1       4.705  -4.108   0.584  0.00  0.00     0.001 A 
HETATM   32  C           1       3.463  -3.474   0.626  0.00  0.00     0.012 A 
ENDBRANCH   2  27
TORSDOF 9
