REMARK  9 active torsions:
REMARK  status: ('A' for Active; 'I' for Inactive)
REMARK    1  A    between atoms: C_4  and  S_20 
REMARK    2  A    between atoms: C_5  and  C_7 
REMARK    3  A    between atoms: C_7  and  N_8 
REMARK    4  A    between atoms: N_8  and  C_9 
REMARK    5  A    between atoms: C_9  and  C_10 
REMARK    6  A    between atoms: C_10  and  C_11 
REMARK    7  A    between atoms: N_14  and  C_17 
REMARK    8  A    between atoms: S_20  and  C_27 
REMARK    9  A    between atoms: C_21  and  C_27 
ROOT
HETATM    1  C           1       6.127   1.252  -0.253  0.00  0.00     0.029 A 
HETATM    2  C           1       6.937   0.165   0.038  0.00  0.00     0.137 A 
HETATM    3  N           1       6.464  -1.058   0.363  0.00  0.00    -0.252 NA
HETATM    4  C           1       5.121  -1.198   0.398  0.00  0.00     0.101 A 
HETATM    5  C           1       4.231  -0.172   0.123  0.00  0.00     0.006 A 
HETATM    6  C           1       4.748   1.076  -0.208  0.00  0.00     0.032 A 
HETATM    7 Br           1       6.874   2.920  -0.697  0.00  0.00    -0.050 Br
ENDROOT
BRANCH   5   8
HETATM    8  C           1       2.753  -0.400   0.182  0.00  0.00     0.308 C 
BRANCH   8   9
HETATM    9  N           1       2.065   0.820  -0.144  0.00  0.00     0.087 N 
HETATM   10  H           1       2.310   1.540   0.535  0.00  0.00     0.316 HD
BRANCH   9  11
HETATM   11  C           1       0.653   0.558  -0.077  0.00  0.00     0.270 C 
BRANCH  11  12
HETATM   12  C           1      -0.117   1.827  -0.416  0.00  0.00     0.034 C 
BRANCH  12  13
HETATM   13  C           1      -1.612   1.549  -0.344  0.00  0.00    -0.010 C 
HETATM   14  C           1      -2.240   2.455   0.711  0.00  0.00     0.035 C 
HETATM   15  C           1      -3.764   2.357   0.689  0.00  0.00     0.272 C 
HETATM   16  N           1      -4.300   2.649  -0.641  0.00  0.00     0.088 N 
HETATM   17  C           1      -3.761   1.734  -1.648  0.00  0.00     0.272 C 
HETATM   18  C           1      -2.236   1.809  -1.712  0.00  0.00     0.035 C 
BRANCH  16  19
HETATM   19  C           1      -5.717   2.420  -0.557  0.00  0.00     0.268 C 
HETATM   20  C           1      -6.359   2.702  -1.909  0.00  0.00     0.037 C 
ENDBRANCH  16  19
ENDBRANCH  12  13
ENDBRANCH  11  12
ENDBRANCH   9  11
ENDBRANCH   8   9
ENDBRANCH   5   8
BRANCH   4  21
HETATM   21  S           1       4.442  -2.825   0.831  0.00  0.00    -0.105 SA
BRANCH  21  22
HETATM   22  C           1       2.715  -2.285   0.684  0.00  0.00     0.122 C 
BRANCH  22  23
HETATM   23  C           1       1.805  -3.434   0.989  0.00  0.00    -0.049 A 
HETATM   24  C           1       2.340  -4.678   1.321  0.00  0.00     0.008 A 
HETATM   25  C           1       1.491  -5.748   1.605  0.00  0.00     0.001 A 
HETATM   26  C           1       0.108  -5.574   1.557  0.00  0.00     0.000 A 
HETATM   27  C           1      -0.426  -4.329   1.224  0.00  0.00     0.001 A 
HETATM   28  C           1       0.422  -3.259   0.940  0.00  0.00     0.008 A 
ENDBRANCH  22  23
ENDBRANCH  21  22
ENDBRANCH   4  21
TORSDOF 9
