MODEL 1
REMARK VINA RESULT:      -9.4      0.000      0.000
REMARK  8 active torsions:
REMARK  status: ('A' for Active; 'I' for Inactive)
REMARK    1  A    between atoms: C8_8  and  C9_9 
REMARK    2  A    between atoms: C9_9  and  N1_10 
REMARK    3  A    between atoms: N1_10  and  C10_11 
REMARK    4  A    between atoms: C10_11  and  C11_12 
REMARK    5  A    between atoms: C14_15  and  N2_16 
REMARK    6  A    between atoms: C22_24  and  S1_25 
REMARK    7  A    between atoms: S1_25  and  C23_26 
REMARK    8  A    between atoms: C23_26  and  C24_27 
ROOT
HETATM    1  C1  UNL     1     171.540 189.241 280.681  1.00  0.00     0.068 A 
HETATM    2  C2  UNL     1     170.867 190.446 280.456  1.00  0.00     0.032 A 
HETATM    3  C3  UNL     1     170.902 191.456 281.422  1.00  0.00     0.002 A 
HETATM    4  C4  UNL     1     171.608 191.263 282.615  1.00  0.00     0.001 A 
HETATM    5  C5  UNL     1     172.270 190.055 282.853  1.00  0.00     0.014 A 
HETATM    6  C6  UNL     1     172.237 189.037 281.888  1.00  0.00    -0.007 A 
HETATM    7  C7  UNL     1     172.890 187.817 282.093  1.00  0.00     0.025 A 
HETATM    8  C8  UNL     1     172.861 186.817 281.108  1.00  0.00     0.006 A 
HETATM    9  C22 UNL     1     172.131 187.063 279.919  1.00  0.00     0.102 A 
HETATM   10  N3  UNL     1     171.516 188.263 279.741  1.00  0.00    -0.241 NA
ENDROOT
BRANCH   8  11
HETATM   11  C9  UNL     1     173.637 185.539 281.350  1.00  0.00     0.311 C 
BRANCH  11  12
HETATM   12  N1  UNL     1     173.287 184.970 282.667  1.00  0.00     0.091 N 
HETATM   13  H8  UNL     1     172.877 184.020 282.506  1.00  0.00     0.316 HD
BRANCH  12  14
HETATM   14  C10 UNL     1     174.455 184.787 283.544  1.00  0.00     0.308 C 
BRANCH  14  15
HETATM   15  C11 UNL     1     174.111 185.054 284.987  1.00  0.00    -0.030 A 
HETATM   16  C12 UNL     1     175.122 185.093 285.958  1.00  0.00     0.011 A 
HETATM   17  C13 UNL     1     174.826 185.475 287.268  1.00  0.00     0.030 A 
HETATM   18  C14 UNL     1     173.510 185.810 287.634  1.00  0.00     0.030 A 
HETATM   19  C20 UNL     1     172.491 185.713 286.672  1.00  0.00     0.030 A 
HETATM   20  C21 UNL     1     172.787 185.328 285.361  1.00  0.00     0.011 A 
BRANCH  18  21
HETATM   21  N2  UNL     1     173.220 186.331 288.950  1.00  0.00    -0.381 N 
HETATM   22  C15 UNL     1     172.155 187.317 289.169  1.00  0.00     0.123 C 
HETATM   23  C16 UNL     1     170.975 186.664 289.910  1.00  0.00     0.020 C 
HETATM   24  C17 UNL     1     171.411 185.506 290.833  1.00  0.00     0.003 C 
HETATM   25  C18 UNL     1     172.854 185.679 291.324  1.00  0.00     0.020 C 
HETATM   26  C19 UNL     1     173.830 185.698 290.131  1.00  0.00     0.123 C 
ENDBRANCH  18  21
ENDBRANCH  14  15
ENDBRANCH  12  14
ENDBRANCH  11  12
ENDBRANCH   8  11
BRANCH   9  27
HETATM   27  S1  UNL     1     171.972 185.838 278.610  1.00  0.00    -0.105 SA
BRANCH  27  28
HETATM   28  C23 UNL     1     172.641 186.916 277.295  1.00  0.00     0.119 C 
BRANCH  28  29
HETATM   29  C24 UNL     1     173.980 186.405 276.829  1.00  0.00    -0.049 A 
HETATM   30  C25 UNL     1     175.166 186.854 277.436  1.00  0.00     0.008 A 
HETATM   31  C26 UNL     1     176.403 186.344 277.026  1.00  0.00     0.001 A 
HETATM   32  C27 UNL     1     176.464 185.387 276.008  1.00  0.00     0.000 A 
HETATM   33  C28 UNL     1     175.291 184.944 275.394  1.00  0.00     0.001 A 
HETATM   34  C29 UNL     1     174.053 185.455 275.795  1.00  0.00     0.008 A 
ENDBRANCH  28  29
ENDBRANCH  27  28
ENDBRANCH   9  27
TORSDOF 8
ENDMDL
MODEL 2
REMARK VINA RESULT:      -9.1      4.062      7.453
REMARK  8 active torsions:
REMARK  status: ('A' for Active; 'I' for Inactive)
REMARK    1  A    between atoms: C8_8  and  C9_9 
REMARK    2  A    between atoms: C9_9  and  N1_10 
REMARK    3  A    between atoms: N1_10  and  C10_11 
REMARK    4  A    between atoms: C10_11  and  C11_12 
REMARK    5  A    between atoms: C14_15  and  N2_16 
REMARK    6  A    between atoms: C22_24  and  S1_25 
REMARK    7  A    between atoms: S1_25  and  C23_26 
REMARK    8  A    between atoms: C23_26  and  C24_27 
ROOT
HETATM    1  C1  UNL     1     174.549 189.624 271.601  1.00  0.00     0.068 A 
HETATM    2  C2  UNL     1     175.304 190.279 270.625  1.00  0.00     0.032 A 
HETATM    3  C3  UNL     1     175.343 191.676 270.594  1.00  0.00     0.002 A 
HETATM    4  C4  UNL     1     174.627 192.421 271.537  1.00  0.00     0.001 A 
HETATM    5  C5  UNL     1     173.857 191.772 272.508  1.00  0.00     0.014 A 
HETATM    6  C6  UNL     1     173.813 190.369 272.543  1.00  0.00    -0.007 A 
HETATM    7  C7  UNL     1     173.055 189.688 273.501  1.00  0.00     0.025 A 
HETATM    8  C8  UNL     1     173.038 188.284 273.532  1.00  0.00     0.006 A 
HETATM    9  C22 UNL     1     173.780 187.580 272.552  1.00  0.00     0.102 A 
HETATM   10  N3  UNL     1     174.518 188.268 271.640  1.00  0.00    -0.241 NA
ENDROOT
BRANCH   8  11
HETATM   11  C9  UNL     1     172.253 187.593 274.627  1.00  0.00     0.311 C 
BRANCH  11  12
HETATM   12  N1  UNL     1     173.049 187.536 275.869  1.00  0.00     0.091 N 
HETATM   13  H8  UNL     1     172.733 188.320 276.487  1.00  0.00     0.316 HD
BRANCH  12  14
HETATM   14  C10 UNL     1     172.848 186.290 276.625  1.00  0.00     0.308 C 
BRANCH  14  15
HETATM   15  C11 UNL     1     173.178 186.468 278.085  1.00  0.00    -0.030 A 
HETATM   16  C12 UNL     1     172.279 186.036 279.070  1.00  0.00     0.011 A 
HETATM   17  C13 UNL     1     172.640 186.073 280.419  1.00  0.00     0.030 A 
HETATM   18  C14 UNL     1     173.901 186.559 280.807  1.00  0.00     0.030 A 
HETATM   19  C20 UNL     1     174.776 187.045 279.820  1.00  0.00     0.030 A 
HETATM   20  C21 UNL     1     174.413 187.010 278.471  1.00  0.00     0.011 A 
BRANCH  18  21
HETATM   21  N2  UNL     1     174.331 186.478 282.184  1.00  0.00    -0.381 N 
HETATM   22  C15 UNL     1     173.899 187.464 283.182  1.00  0.00     0.123 C 
HETATM   23  C16 UNL     1     172.904 186.822 284.164  1.00  0.00     0.020 C 
HETATM   24  C17 UNL     1     173.139 185.308 284.355  1.00  0.00     0.003 C 
HETATM   25  C18 UNL     1     174.604 184.922 284.107  1.00  0.00     0.020 C 
HETATM   26  C19 UNL     1     175.014 185.264 282.661  1.00  0.00     0.123 C 
ENDBRANCH  18  21
ENDBRANCH  14  15
ENDBRANCH  12  14
ENDBRANCH  11  12
ENDBRANCH   8  11
BRANCH   9  27
HETATM   27  S1  UNL     1     173.789 185.782 272.453  1.00  0.00    -0.105 SA
BRANCH  27  28
HETATM   28  C23 UNL     1     175.608 185.634 272.347  1.00  0.00     0.119 C 
BRANCH  28  29
HETATM   29  C24 UNL     1     176.218 185.671 273.724  1.00  0.00    -0.049 A 
HETATM   30  C25 UNL     1     175.646 184.941 274.780  1.00  0.00     0.008 A 
HETATM   31  C26 UNL     1     176.243 184.947 276.045  1.00  0.00     0.001 A 
HETATM   32  C27 UNL     1     177.410 185.685 276.266  1.00  0.00     0.000 A 
HETATM   33  C28 UNL     1     177.979 186.421 275.225  1.00  0.00     0.001 A 
HETATM   34  C29 UNL     1     177.383 186.423 273.960  1.00  0.00     0.008 A 
ENDBRANCH  28  29
ENDBRANCH  27  28
ENDBRANCH   9  27
TORSDOF 8
ENDMDL
MODEL 3
REMARK VINA RESULT:      -9.1      2.343      8.747
REMARK  8 active torsions:
REMARK  status: ('A' for Active; 'I' for Inactive)
REMARK    1  A    between atoms: C8_8  and  C9_9 
REMARK    2  A    between atoms: C9_9  and  N1_10 
REMARK    3  A    between atoms: N1_10  and  C10_11 
REMARK    4  A    between atoms: C10_11  and  C11_12 
REMARK    5  A    between atoms: C14_15  and  N2_16 
REMARK    6  A    between atoms: C22_24  and  S1_25 
REMARK    7  A    between atoms: S1_25  and  C23_26 
REMARK    8  A    between atoms: C23_26  and  C24_27 
ROOT
HETATM    1  C1  UNL     1     171.691 186.214 289.567  1.00  0.00     0.068 A 
HETATM    2  C2  UNL     1     171.712 185.646 290.844  1.00  0.00     0.032 A 
HETATM    3  C3  UNL     1     171.486 186.446 291.968  1.00  0.00     0.002 A 
HETATM    4  C4  UNL     1     171.242 187.815 291.819  1.00  0.00     0.001 A 
HETATM    5  C5  UNL     1     171.234 188.393 290.546  1.00  0.00     0.014 A 
HETATM    6  C6  UNL     1     171.462 187.595 289.413  1.00  0.00    -0.007 A 
HETATM    7  C7  UNL     1     171.460 188.141 288.126  1.00  0.00     0.025 A 
HETATM    8  C8  UNL     1     171.672 187.324 287.003  1.00  0.00     0.006 A 
HETATM    9  C22 UNL     1     171.916 185.944 287.211  1.00  0.00     0.102 A 
HETATM   10  N3  UNL     1     171.900 185.438 288.474  1.00  0.00    -0.241 NA
ENDROOT
BRANCH   8  11
HETATM   11  C9  UNL     1     171.597 187.950 285.626  1.00  0.00     0.311 C 
BRANCH  11  12
HETATM   12  N1  UNL     1     172.952 188.115 285.065  1.00  0.00     0.091 N 
HETATM   13  H8  UNL     1     173.290 187.170 284.764  1.00  0.00     0.316 HD
BRANCH  12  14
HETATM   14  C10 UNL     1     172.981 188.978 283.873  1.00  0.00     0.308 C 
BRANCH  14  15
HETATM   15  C11 UNL     1     173.188 188.176 282.614  1.00  0.00    -0.030 A 
HETATM   16  C12 UNL     1     172.416 187.030 282.371  1.00  0.00     0.011 A 
HETATM   17  C13 UNL     1     172.506 186.366 281.146  1.00  0.00     0.030 A 
HETATM   18  C14 UNL     1     173.384 186.825 280.148  1.00  0.00     0.030 A 
HETATM   19  C20 UNL     1     174.198 187.938 280.418  1.00  0.00     0.030 A 
HETATM   20  C21 UNL     1     174.108 188.602 281.645  1.00  0.00     0.011 A 
BRANCH  18  21
HETATM   21  N2  UNL     1     173.388 186.223 278.835  1.00  0.00    -0.381 N 
HETATM   22  C15 UNL     1     172.306 185.334 278.395  1.00  0.00     0.123 C 
HETATM   23  C16 UNL     1     171.447 186.034 277.327  1.00  0.00     0.020 C 
HETATM   24  C17 UNL     1     172.246 187.058 276.490  1.00  0.00     0.003 C 
HETATM   25  C18 UNL     1     173.736 186.697 276.417  1.00  0.00     0.020 C 
HETATM   26  C19 UNL     1     174.357 186.685 277.827  1.00  0.00     0.123 C 
ENDBRANCH  18  21
ENDBRANCH  14  15
ENDBRANCH  12  14
ENDBRANCH  11  12
ENDBRANCH   8  11
BRANCH   9  27
HETATM   27  S1  UNL     1     172.258 184.807 285.858  1.00  0.00    -0.105 SA
BRANCH  27  28
HETATM   28  C23 UNL     1     174.058 184.726 286.164  1.00  0.00     0.119 C 
BRANCH  28  29
HETATM   29  C24 UNL     1     174.818 185.081 284.912  1.00  0.00    -0.049 A 
HETATM   30  C25 UNL     1     174.584 184.388 283.712  1.00  0.00     0.008 A 
HETATM   31  C26 UNL     1     175.264 184.751 282.544  1.00  0.00     0.001 A 
HETATM   32  C27 UNL     1     176.183 185.804 282.568  1.00  0.00     0.000 A 
HETATM   33  C28 UNL     1     176.429 186.492 283.758  1.00  0.00     0.001 A 
HETATM   34  C29 UNL     1     175.757 186.128 284.930  1.00  0.00     0.008 A 
ENDBRANCH  28  29
ENDBRANCH  27  28
ENDBRANCH   9  27
TORSDOF 8
ENDMDL
MODEL 4
REMARK VINA RESULT:      -9.0      2.307      8.789
REMARK  8 active torsions:
REMARK  status: ('A' for Active; 'I' for Inactive)
REMARK    1  A    between atoms: C8_8  and  C9_9 
REMARK    2  A    between atoms: C9_9  and  N1_10 
REMARK    3  A    between atoms: N1_10  and  C10_11 
REMARK    4  A    between atoms: C10_11  and  C11_12 
REMARK    5  A    between atoms: C14_15  and  N2_16 
REMARK    6  A    between atoms: C22_24  and  S1_25 
REMARK    7  A    between atoms: S1_25  and  C23_26 
REMARK    8  A    between atoms: C23_26  and  C24_27 
ROOT
HETATM    1  C1  UNL     1     172.159 187.341 290.107  1.00  0.00     0.068 A 
HETATM    2  C2  UNL     1     171.277 187.968 290.992  1.00  0.00     0.032 A 
HETATM    3  C3  UNL     1     171.146 187.495 292.300  1.00  0.00     0.002 A 
HETATM    4  C4  UNL     1     171.895 186.393 292.727  1.00  0.00     0.001 A 
HETATM    5  C5  UNL     1     172.769 185.752 291.844  1.00  0.00     0.014 A 
HETATM    6  C6  UNL     1     172.903 186.222 290.528  1.00  0.00    -0.007 A 
HETATM    7  C7  UNL     1     173.769 185.605 289.619  1.00  0.00     0.025 A 
HETATM    8  C8  UNL     1     173.904 186.101 288.311  1.00  0.00     0.006 A 
HETATM    9  C22 UNL     1     173.121 187.218 287.931  1.00  0.00     0.102 A 
HETATM   10  N3  UNL     1     172.296 187.806 288.840  1.00  0.00    -0.241 NA
ENDROOT
BRANCH   8  11
HETATM   11  C9  UNL     1     174.901 185.437 287.385  1.00  0.00     0.311 C 
BRANCH  11  12
HETATM   12  N1  UNL     1     174.195 184.691 286.324  1.00  0.00     0.091 N 
HETATM   13  H8  UNL     1     173.386 185.275 286.008  1.00  0.00     0.316 HD
BRANCH  12  14
HETATM   14  C10 UNL     1     175.033 184.445 285.139  1.00  0.00     0.308 C 
BRANCH  14  15
HETATM   15  C11 UNL     1     174.528 185.203 283.937  1.00  0.00    -0.030 A 
HETATM   16  C12 UNL     1     175.433 185.820 283.061  1.00  0.00     0.011 A 
HETATM   17  C13 UNL     1     174.979 186.403 281.876  1.00  0.00     0.030 A 
HETATM   18  C14 UNL     1     173.610 186.394 281.554  1.00  0.00     0.030 A 
HETATM   19  C20 UNL     1     172.701 185.826 282.463  1.00  0.00     0.030 A 
HETATM   20  C21 UNL     1     173.156 185.244 283.650  1.00  0.00     0.011 A 
BRANCH  18  21
HETATM   21  N2  UNL     1     173.151 186.877 280.273  1.00  0.00    -0.381 N 
HETATM   22  C15 UNL     1     173.950 186.703 279.054  1.00  0.00     0.123 C 
HETATM   23  C16 UNL     1     173.292 185.660 278.134  1.00  0.00     0.020 C 
HETATM   24  C17 UNL     1     171.756 185.607 278.287  1.00  0.00     0.003 C 
HETATM   25  C18 UNL     1     171.182 186.953 278.752  1.00  0.00     0.020 C 
HETATM   26  C19 UNL     1     171.760 187.338 280.127  1.00  0.00     0.123 C 
ENDBRANCH  18  21
ENDBRANCH  14  15
ENDBRANCH  12  14
ENDBRANCH  11  12
ENDBRANCH   8  11
BRANCH   9  27
HETATM   27  S1  UNL     1     173.162 187.907 286.269  1.00  0.00    -0.105 SA
BRANCH  27  28
HETATM   28  C23 UNL     1     171.377 187.679 285.952  1.00  0.00     0.119 C 
BRANCH  28  29
HETATM   29  C24 UNL     1     170.902 188.651 284.903  1.00  0.00    -0.049 A 
HETATM   30  C25 UNL     1     169.664 189.303 285.040  1.00  0.00     0.008 A 
HETATM   31  C26 UNL     1     169.250 190.235 284.083  1.00  0.00     0.001 A 
HETATM   32  C27 UNL     1     170.065 190.520 282.982  1.00  0.00     0.000 A 
HETATM   33  C28 UNL     1     171.291 189.869 282.834  1.00  0.00     0.001 A 
HETATM   34  C29 UNL     1     171.707 188.931 283.785  1.00  0.00     0.008 A 
ENDBRANCH  28  29
ENDBRANCH  27  28
ENDBRANCH   9  27
TORSDOF 8
ENDMDL
MODEL 5
REMARK VINA RESULT:      -8.9      2.304      3.417
REMARK  8 active torsions:
REMARK  status: ('A' for Active; 'I' for Inactive)
REMARK    1  A    between atoms: C8_8  and  C9_9 
REMARK    2  A    between atoms: C9_9  and  N1_10 
REMARK    3  A    between atoms: N1_10  and  C10_11 
REMARK    4  A    between atoms: C10_11  and  C11_12 
REMARK    5  A    between atoms: C14_15  and  N2_16 
REMARK    6  A    between atoms: C22_24  and  S1_25 
REMARK    7  A    between atoms: S1_25  and  C23_26 
REMARK    8  A    between atoms: C23_26  and  C24_27 
ROOT
HETATM    1  C1  UNL     1     171.183 187.079 277.089  1.00  0.00     0.068 A 
HETATM    2  C2  UNL     1     170.301 187.219 276.013  1.00  0.00     0.032 A 
HETATM    3  C3  UNL     1     168.934 187.390 276.249  1.00  0.00     0.002 A 
HETATM    4  C4  UNL     1     168.445 187.419 277.559  1.00  0.00     0.001 A 
HETATM    5  C5  UNL     1     169.319 187.266 278.640  1.00  0.00     0.014 A 
HETATM    6  C6  UNL     1     170.693 187.092 278.409  1.00  0.00    -0.007 A 
HETATM    7  C7  UNL     1     171.595 186.937 279.467  1.00  0.00     0.025 A 
HETATM    8  C8  UNL     1     172.969 186.783 279.217  1.00  0.00     0.006 A 
HETATM    9  C22 UNL     1     173.410 186.758 277.872  1.00  0.00     0.102 A 
HETATM   10  N3  UNL     1     172.512 186.924 276.863  1.00  0.00    -0.241 NA
ENDROOT
BRANCH   8  11
HETATM   11  C9  UNL     1     173.912 186.682 280.397  1.00  0.00     0.311 C 
BRANCH  11  12
HETATM   12  N1  UNL     1     173.445 185.646 281.338  1.00  0.00     0.091 N 
HETATM   13  H8  UNL     1     173.158 184.810 280.777  1.00  0.00     0.316 HD
BRANCH  12  14
HETATM   14  C10 UNL     1     174.496 185.195 282.266  1.00  0.00     0.308 C 
BRANCH  14  15
HETATM   15  C11 UNL     1     173.975 185.070 283.675  1.00  0.00    -0.030 A 
HETATM   16  C12 UNL     1     174.843 184.724 284.720  1.00  0.00     0.011 A 
HETATM   17  C13 UNL     1     174.395 184.743 286.043  1.00  0.00     0.030 A 
HETATM   18  C14 UNL     1     173.066 185.093 286.342  1.00  0.00     0.030 A 
HETATM   19  C20 UNL     1     172.185 185.383 285.286  1.00  0.00     0.030 A 
HETATM   20  C21 UNL     1     172.633 185.361 283.962  1.00  0.00     0.011 A 
BRANCH  18  21
HETATM   21  N2  UNL     1     172.633 185.242 287.712  1.00  0.00    -0.381 N 
HETATM   22  C15 UNL     1     173.555 185.685 288.766  1.00  0.00     0.123 C 
HETATM   23  C16 UNL     1     173.200 187.115 289.211  1.00  0.00     0.020 C 
HETATM   24  C17 UNL     1     171.698 187.438 289.055  1.00  0.00     0.003 C 
HETATM   25  C18 UNL     1     170.829 186.176 289.150  1.00  0.00     0.020 C 
HETATM   26  C19 UNL     1     171.197 185.184 288.030  1.00  0.00     0.123 C 
ENDBRANCH  18  21
ENDBRANCH  14  15
ENDBRANCH  12  14
ENDBRANCH  11  12
ENDBRANCH   8  11
BRANCH   9  27
HETATM   27  S1  UNL     1     175.136 186.509 277.424  1.00  0.00    -0.105 SA
BRANCH  27  28
HETATM   28  C23 UNL     1     174.808 185.124 276.277  1.00  0.00     0.119 C 
BRANCH  28  29
HETATM   29  C24 UNL     1     175.450 185.389 274.939  1.00  0.00    -0.049 A 
HETATM   30  C25 UNL     1     174.825 184.973 273.751  1.00  0.00     0.008 A 
HETATM   31  C26 UNL     1     175.407 185.259 272.511  1.00  0.00     0.001 A 
HETATM   32  C27 UNL     1     176.616 185.959 272.449  1.00  0.00     0.000 A 
HETATM   33  C28 UNL     1     177.249 186.368 273.626  1.00  0.00     0.001 A 
HETATM   34  C29 UNL     1     176.674 186.078 274.868  1.00  0.00     0.008 A 
ENDBRANCH  28  29
ENDBRANCH  27  28
ENDBRANCH   9  27
TORSDOF 8
ENDMDL
MODEL 6
REMARK VINA RESULT:      -8.9      4.138      7.896
REMARK  8 active torsions:
REMARK  status: ('A' for Active; 'I' for Inactive)
REMARK    1  A    between atoms: C8_8  and  C9_9 
REMARK    2  A    between atoms: C9_9  and  N1_10 
REMARK    3  A    between atoms: N1_10  and  C10_11 
REMARK    4  A    between atoms: C10_11  and  C11_12 
REMARK    5  A    between atoms: C14_15  and  N2_16 
REMARK    6  A    between atoms: C22_24  and  S1_25 
REMARK    7  A    between atoms: S1_25  and  C23_26 
REMARK    8  A    between atoms: C23_26  and  C24_27 
ROOT
HETATM    1  C1  UNL     1     176.028 186.797 274.538  1.00  0.00     0.068 A 
HETATM    2  C2  UNL     1     177.340 186.380 274.296  1.00  0.00     0.032 A 
HETATM    3  C3  UNL     1     178.170 186.031 275.365  1.00  0.00     0.002 A 
HETATM    4  C4  UNL     1     177.691 186.100 276.678  1.00  0.00     0.001 A 
HETATM    5  C5  UNL     1     176.385 186.531 276.929  1.00  0.00     0.014 A 
HETATM    6  C6  UNL     1     175.547 186.883 275.859  1.00  0.00    -0.007 A 
HETATM    7  C7  UNL     1     174.235 187.317 276.074  1.00  0.00     0.025 A 
HETATM    8  C8  UNL     1     173.405 187.648 274.990  1.00  0.00     0.006 A 
HETATM    9  C22 UNL     1     173.941 187.562 273.682  1.00  0.00     0.102 A 
HETATM   10  N3  UNL     1     175.217 187.126 273.501  1.00  0.00    -0.241 NA
ENDROOT
BRANCH   8  11
HETATM   11  C9  UNL     1     171.973 188.051 275.271  1.00  0.00     0.311 C 
BRANCH  11  12
HETATM   12  N1  UNL     1     171.132 186.852 275.456  1.00  0.00     0.091 N 
HETATM   13  H8  UNL     1     171.765 186.049 275.680  1.00  0.00     0.316 HD
BRANCH  12  14
HETATM   14  C10 UNL     1     170.188 186.978 276.579  1.00  0.00     0.308 C 
BRANCH  14  15
HETATM   15  C11 UNL     1     170.892 186.867 277.908  1.00  0.00    -0.030 A 
HETATM   16  C12 UNL     1     171.682 185.746 278.197  1.00  0.00     0.011 A 
HETATM   17  C13 UNL     1     172.444 185.704 279.367  1.00  0.00     0.030 A 
HETATM   18  C14 UNL     1     172.415 186.776 280.276  1.00  0.00     0.030 A 
HETATM   19  C20 UNL     1     171.576 187.871 280.010  1.00  0.00     0.030 A 
HETATM   20  C21 UNL     1     170.812 187.912 278.840  1.00  0.00     0.011 A 
BRANCH  18  21
HETATM   21  N2  UNL     1     173.298 186.796 281.420  1.00  0.00    -0.381 N 
HETATM   22  C15 UNL     1     172.790 186.621 282.786  1.00  0.00     0.123 C 
HETATM   23  C16 UNL     1     173.216 185.248 283.336  1.00  0.00     0.020 C 
HETATM   24  C17 UNL     1     174.550 184.749 282.739  1.00  0.00     0.003 C 
HETATM   25  C18 UNL     1     175.451 185.912 282.302  1.00  0.00     0.020 C 
HETATM   26  C19 UNL     1     174.755 186.751 281.213  1.00  0.00     0.123 C 
ENDBRANCH  18  21
ENDBRANCH  14  15
ENDBRANCH  12  14
ENDBRANCH  11  12
ENDBRANCH   8  11
BRANCH   9  27
HETATM   27  S1  UNL     1     172.996 188.015 272.218  1.00  0.00    -0.105 SA
BRANCH  27  28
HETATM   28  C23 UNL     1     174.454 188.482 271.220  1.00  0.00     0.119 C 
BRANCH  28  29
HETATM   29  C24 UNL     1     174.672 189.972 271.277  1.00  0.00    -0.049 A 
HETATM   30  C25 UNL     1     175.715 190.570 270.548  1.00  0.00     0.008 A 
HETATM   31  C26 UNL     1     175.886 191.958 270.573  1.00  0.00     0.001 A 
HETATM   32  C27 UNL     1     175.020 192.758 271.326  1.00  0.00     0.000 A 
HETATM   33  C28 UNL     1     173.988 192.170 272.060  1.00  0.00     0.001 A 
HETATM   34  C29 UNL     1     173.817 190.782 272.044  1.00  0.00     0.008 A 
ENDBRANCH  28  29
ENDBRANCH  27  28
ENDBRANCH   9  27
TORSDOF 8
ENDMDL
MODEL 7
REMARK VINA RESULT:      -8.8      2.314      5.085
REMARK  8 active torsions:
REMARK  status: ('A' for Active; 'I' for Inactive)
REMARK    1  A    between atoms: C8_8  and  C9_9 
REMARK    2  A    between atoms: C9_9  and  N1_10 
REMARK    3  A    between atoms: N1_10  and  C10_11 
REMARK    4  A    between atoms: C10_11  and  C11_12 
REMARK    5  A    between atoms: C14_15  and  N2_16 
REMARK    6  A    between atoms: C22_24  and  S1_25 
REMARK    7  A    between atoms: S1_25  and  C23_26 
REMARK    8  A    between atoms: C23_26  and  C24_27 
ROOT
HETATM    1  C1  UNL     1     175.031 185.721 276.045  1.00  0.00     0.068 A 
HETATM    2  C2  UNL     1     175.545 185.322 274.807  1.00  0.00     0.032 A 
HETATM    3  C3  UNL     1     176.837 185.702 274.433  1.00  0.00     0.002 A 
HETATM    4  C4  UNL     1     177.618 186.482 275.293  1.00  0.00     0.001 A 
HETATM    5  C5  UNL     1     177.105 186.897 276.526  1.00  0.00     0.014 A 
HETATM    6  C6  UNL     1     175.807 186.520 276.907  1.00  0.00    -0.007 A 
HETATM    7  C7  UNL     1     175.264 186.916 278.133  1.00  0.00     0.025 A 
HETATM    8  C8  UNL     1     173.970 186.514 278.505  1.00  0.00     0.006 A 
HETATM    9  C22 UNL     1     173.223 185.726 277.596  1.00  0.00     0.102 A 
HETATM   10  N3  UNL     1     173.781 185.345 276.415  1.00  0.00    -0.241 NA
ENDROOT
BRANCH   8  11
HETATM   11  C9  UNL     1     173.451 186.916 279.869  1.00  0.00     0.311 C 
BRANCH  11  12
HETATM   12  N1  UNL     1     174.371 186.449 280.925  1.00  0.00     0.091 N 
HETATM   13  H8  UNL     1     174.441 187.205 281.645  1.00  0.00     0.316 HD
BRANCH  12  14
HETATM   14  C10 UNL     1     173.889 185.243 281.617  1.00  0.00     0.308 C 
BRANCH  14  15
HETATM   15  C11 UNL     1     173.769 185.468 283.103  1.00  0.00    -0.030 A 
HETATM   16  C12 UNL     1     174.782 185.029 283.967  1.00  0.00     0.011 A 
HETATM   17  C13 UNL     1     174.741 185.357 285.325  1.00  0.00     0.030 A 
HETATM   18  C14 UNL     1     173.678 186.116 285.844  1.00  0.00     0.030 A 
HETATM   19  C20 UNL     1     172.636 186.504 284.984  1.00  0.00     0.030 A 
HETATM   20  C21 UNL     1     172.676 186.174 283.627  1.00  0.00     0.011 A 
BRANCH  18  21
HETATM   21  N2  UNL     1     173.696 186.569 287.216  1.00  0.00    -0.381 N 
HETATM   22  C15 UNL     1     172.806 187.638 287.684  1.00  0.00     0.123 C 
HETATM   23  C16 UNL     1     171.717 187.056 288.602  1.00  0.00     0.020 C 
HETATM   24  C17 UNL     1     172.184 185.797 289.365  1.00  0.00     0.003 C 
HETATM   25  C18 UNL     1     173.704 185.790 289.579  1.00  0.00     0.020 C 
HETATM   26  C19 UNL     1     174.439 185.796 288.225  1.00  0.00     0.123 C 
ENDBRANCH  18  21
ENDBRANCH  14  15
ENDBRANCH  12  14
ENDBRANCH  11  12
ENDBRANCH   8  11
BRANCH   9  27
HETATM   27  S1  UNL     1     171.535 185.199 277.933  1.00  0.00    -0.105 SA
BRANCH  27  28
HETATM   28  C23 UNL     1     170.799 186.857 277.712  1.00  0.00     0.119 C 
BRANCH  28  29
HETATM   29  C24 UNL     1     169.998 186.908 276.437  1.00  0.00    -0.049 A 
HETATM   30  C25 UNL     1     168.593 186.937 276.474  1.00  0.00     0.008 A 
HETATM   31  C26 UNL     1     167.858 187.027 275.288  1.00  0.00     0.001 A 
HETATM   32  C27 UNL     1     168.519 187.086 274.057  1.00  0.00     0.000 A 
HETATM   33  C28 UNL     1     169.914 187.048 274.010  1.00  0.00     0.001 A 
HETATM   34  C29 UNL     1     170.653 186.951 275.193  1.00  0.00     0.008 A 
ENDBRANCH  28  29
ENDBRANCH  27  28
ENDBRANCH   9  27
TORSDOF 8
ENDMDL
MODEL 8
REMARK VINA RESULT:      -8.4      4.313     11.564
REMARK  8 active torsions:
REMARK  status: ('A' for Active; 'I' for Inactive)
REMARK    1  A    between atoms: C8_8  and  C9_9 
REMARK    2  A    between atoms: C9_9  and  N1_10 
REMARK    3  A    between atoms: N1_10  and  C10_11 
REMARK    4  A    between atoms: C10_11  and  C11_12 
REMARK    5  A    between atoms: C14_15  and  N2_16 
REMARK    6  A    between atoms: C22_24  and  S1_25 
REMARK    7  A    between atoms: S1_25  and  C23_26 
REMARK    8  A    between atoms: C23_26  and  C24_27 
ROOT
HETATM    1  C1  UNL     1     175.851 186.579 276.581  1.00  0.00     0.068 A 
HETATM    2  C2  UNL     1     177.203 186.871 276.380  1.00  0.00     0.032 A 
HETATM    3  C3  UNL     1     177.814 186.548 275.165  1.00  0.00     0.002 A 
HETATM    4  C4  UNL     1     177.077 185.931 274.150  1.00  0.00     0.001 A 
HETATM    5  C5  UNL     1     175.727 185.622 274.349  1.00  0.00     0.014 A 
HETATM    6  C6  UNL     1     175.109 185.943 275.567  1.00  0.00    -0.007 A 
HETATM    7  C7  UNL     1     173.761 185.649 275.799  1.00  0.00     0.025 A 
HETATM    8  C8  UNL     1     173.154 185.994 277.018  1.00  0.00     0.006 A 
HETATM    9  C22 UNL     1     173.948 186.616 278.013  1.00  0.00     0.102 A 
HETATM   10  N3  UNL     1     175.253 186.901 277.756  1.00  0.00    -0.241 NA
ENDROOT
BRANCH   8  11
HETATM   11  C9  UNL     1     171.677 185.713 277.197  1.00  0.00     0.311 C 
BRANCH  11  12
HETATM   12  N1  UNL     1     170.891 186.941 276.969  1.00  0.00     0.091 N 
HETATM   13  H8  UNL     1     171.535 187.759 277.085  1.00  0.00     0.316 HD
BRANCH  12  14
HETATM   14  C10 UNL     1     170.336 187.025 275.608  1.00  0.00     0.308 C 
BRANCH  14  15
HETATM   15  C11 UNL     1     171.251 187.787 274.683  1.00  0.00    -0.030 A 
HETATM   16  C12 UNL     1     171.837 188.990 275.103  1.00  0.00     0.011 A 
HETATM   17  C13 UNL     1     172.790 189.626 274.304  1.00  0.00     0.030 A 
HETATM   18  C14 UNL     1     173.161 189.078 273.063  1.00  0.00     0.030 A 
HETATM   19  C20 UNL     1     172.528 187.904 272.621  1.00  0.00     0.030 A 
HETATM   20  C21 UNL     1     171.573 187.269 273.420  1.00  0.00     0.011 A 
BRANCH  18  21
HETATM   21  N2  UNL     1     174.238 189.658 272.294  1.00  0.00    -0.381 N 
HETATM   22  C15 UNL     1     175.293 188.828 271.702  1.00  0.00     0.123 C 
HETATM   23  C16 UNL     1     175.133 188.780 270.172  1.00  0.00     0.020 C 
HETATM   24  C17 UNL     1     174.483 190.058 269.596  1.00  0.00     0.003 C 
HETATM   25  C18 UNL     1     174.751 191.283 270.480  1.00  0.00     0.020 C 
HETATM   26  C19 UNL     1     174.159 191.071 271.887  1.00  0.00     0.123 C 
ENDBRANCH  18  21
ENDBRANCH  14  15
ENDBRANCH  12  14
ENDBRANCH  11  12
ENDBRANCH   8  11
BRANCH   9  27
HETATM   27  S1  UNL     1     173.299 187.053 279.635  1.00  0.00    -0.105 SA
BRANCH  27  28
HETATM   28  C23 UNL     1     174.920 187.006 280.477  1.00  0.00     0.119 C 
BRANCH  28  29
HETATM   29  C24 UNL     1     174.804 186.289 281.797  1.00  0.00    -0.049 A 
HETATM   30  C25 UNL     1     175.829 186.383 282.755  1.00  0.00     0.008 A 
HETATM   31  C26 UNL     1     175.696 185.749 283.994  1.00  0.00     0.001 A 
HETATM   32  C27 UNL     1     174.541 185.017 284.286  1.00  0.00     0.000 A 
HETATM   33  C28 UNL     1     173.522 184.911 283.337  1.00  0.00     0.001 A 
HETATM   34  C29 UNL     1     173.654 185.537 282.094  1.00  0.00     0.008 A 
ENDBRANCH  28  29
ENDBRANCH  27  28
ENDBRANCH   9  27
TORSDOF 8
ENDMDL
MODEL 9
REMARK VINA RESULT:      -8.4      1.650      2.308
REMARK  8 active torsions:
REMARK  status: ('A' for Active; 'I' for Inactive)
REMARK    1  A    between atoms: C8_8  and  C9_9 
REMARK    2  A    between atoms: C9_9  and  N1_10 
REMARK    3  A    between atoms: N1_10  and  C10_11 
REMARK    4  A    between atoms: C10_11  and  C11_12 
REMARK    5  A    between atoms: C14_15  and  N2_16 
REMARK    6  A    between atoms: C22_24  and  S1_25 
REMARK    7  A    between atoms: S1_25  and  C23_26 
REMARK    8  A    between atoms: C23_26  and  C24_27 
ROOT
HETATM    1  C1  UNL     1     171.753 189.596 282.360  1.00  0.00     0.068 A 
HETATM    2  C2  UNL     1     171.108 190.775 281.973  1.00  0.00     0.032 A 
HETATM    3  C3  UNL     1     170.094 191.310 282.772  1.00  0.00     0.002 A 
HETATM    4  C4  UNL     1     169.720 190.668 283.957  1.00  0.00     0.001 A 
HETATM    5  C5  UNL     1     170.351 189.481 284.343  1.00  0.00     0.014 A 
HETATM    6  C6  UNL     1     171.369 188.938 283.544  1.00  0.00    -0.007 A 
HETATM    7  C7  UNL     1     172.022 187.753 283.901  1.00  0.00     0.025 A 
HETATM    8  C8  UNL     1     173.051 187.235 283.098  1.00  0.00     0.006 A 
HETATM    9  C22 UNL     1     173.388 187.924 281.908  1.00  0.00     0.102 A 
HETATM   10  N3  UNL     1     172.745 189.081 281.591  1.00  0.00    -0.241 NA
ENDROOT
BRANCH   8  11
HETATM   11  C9  UNL     1     173.770 185.985 283.560  1.00  0.00     0.311 C 
BRANCH  11  12
HETATM   12  N1  UNL     1     174.703 186.307 284.657  1.00  0.00     0.091 N 
HETATM   13  H8  UNL     1     174.422 187.234 285.053  1.00  0.00     0.316 HD
BRANCH  12  14
HETATM   14  C10 UNL     1     174.649 185.337 285.763  1.00  0.00     0.308 C 
BRANCH  14  15
HETATM   15  C11 UNL     1     174.124 185.967 287.027  1.00  0.00    -0.030 A 
HETATM   16  C12 UNL     1     173.137 186.962 286.963  1.00  0.00     0.011 A 
HETATM   17  C13 UNL     1     172.550 187.449 288.134  1.00  0.00     0.030 A 
HETATM   18  C14 UNL     1     172.952 186.961 289.390  1.00  0.00     0.030 A 
HETATM   19  C20 UNL     1     173.982 186.007 289.451  1.00  0.00     0.030 A 
HETATM   20  C21 UNL     1     174.570 185.522 288.280  1.00  0.00     0.011 A 
BRANCH  18  21
HETATM   21  N2  UNL     1     172.261 187.363 290.593  1.00  0.00    -0.381 N 
HETATM   22  C15 UNL     1     171.199 188.377 290.566  1.00  0.00     0.123 C 
HETATM   23  C16 UNL     1     169.831 187.716 290.812  1.00  0.00     0.020 C 
HETATM   24  C17 UNL     1     169.924 186.450 291.692  1.00  0.00     0.003 C 
HETATM   25  C18 UNL     1     171.133 186.498 292.636  1.00  0.00     0.020 C 
HETATM   26  C19 UNL     1     172.443 186.585 291.829  1.00  0.00     0.123 C 
ENDBRANCH  18  21
ENDBRANCH  14  15
ENDBRANCH  12  14
ENDBRANCH  11  12
ENDBRANCH   8  11
BRANCH   9  27
HETATM   27  S1  UNL     1     174.648 187.328 280.768  1.00  0.00    -0.105 SA
BRANCH  27  28
HETATM   28  C23 UNL     1     173.513 186.260 279.813  1.00  0.00     0.119 C 
BRANCH  28  29
HETATM   29  C24 UNL     1     173.886 186.273 278.353  1.00  0.00    -0.049 A 
HETATM   30  C25 UNL     1     175.043 186.942 277.916  1.00  0.00     0.008 A 
HETATM   31  C26 UNL     1     175.405 186.914 276.566  1.00  0.00     0.001 A 
HETATM   32  C27 UNL     1     174.615 186.222 275.642  1.00  0.00     0.000 A 
HETATM   33  C28 UNL     1     173.459 185.564 276.066  1.00  0.00     0.001 A 
HETATM   34  C29 UNL     1     173.089 185.594 277.415  1.00  0.00     0.008 A 
ENDBRANCH  28  29
ENDBRANCH  27  28
ENDBRANCH   9  27
TORSDOF 8
ENDMDL
