MODEL 1
REMARK VINA RESULT:      -9.3      0.000      0.000
REMARK  10 active torsions:
REMARK  status: ('A' for Active; 'I' for Inactive)
REMARK    1  A    between atoms: C_1  and  C_19 
REMARK    2  A    between atoms: C_5  and  S_29 
REMARK    3  A    between atoms: C_6  and  C_8 
REMARK    4  A    between atoms: C_8  and  N_9 
REMARK    5  A    between atoms: N_9  and  C_10 
REMARK    6  A    between atoms: C_10  and  C_11 
REMARK    7  A    between atoms: C_11  and  C_12 
REMARK    8  A    between atoms: N_15  and  C_18 
REMARK    9  A    between atoms: S_29  and  C_36 
REMARK   10  A    between atoms: C_30  and  C_36 
ROOT
HETATM    1  C           1     176.130 185.571 273.427  0.00  0.00    -0.025 A 
HETATM    2  C           1     177.272 186.359 273.574  0.00  0.00     0.014 A 
HETATM    3  C           1     177.914 186.433 274.810  0.00  0.00     0.023 A 
HETATM    4  C           1     177.413 185.721 275.900  0.00  0.00     0.044 A 
HETATM    5  C           1     176.272 184.933 275.753  0.00  0.00     0.023 A 
HETATM    6  C           1     175.630 184.859 274.517  0.00  0.00     0.014 A 
HETATM    7  C           1     178.017 185.790 277.064  0.00  0.00     0.099 C 
HETATM    8  N           1     178.550 185.852 278.091  0.00  0.00    -0.191 NA
ENDROOT
BRANCH   1   9
HETATM    9  C           1     175.515 185.499 272.242  0.00  0.00    -0.010 A 
HETATM   10  C           1     174.289 186.122 272.037  0.00  0.00     0.025 A 
HETATM   11  C           1     173.677 186.027 270.791  0.00  0.00     0.004 A 
HETATM   12  C           1     174.322 185.308 269.797  0.00  0.00     0.077 A 
HETATM   13  N           1     175.513 184.693 269.967  0.00  0.00    -0.359 N 
HETATM   14  C           1     176.083 184.803 271.186  0.00  0.00     0.101 A 
ATOM     15  HN          1     175.959 184.173 269.211  1.00  0.00     0.166 HD
BRANCH  11  16
HETATM   16  C           1     172.357 186.683 270.531  0.00  0.00     0.311 C 
BRANCH  16  17
HETATM   17  N           1     172.480 188.104 270.722  0.00  0.00     0.087 N 
HETATM   18  H           1     173.407 188.318 271.090  0.00  0.00     0.316 HD
BRANCH  17  19
HETATM   19  C           1     171.481 188.505 271.675  0.00  0.00     0.270 C 
BRANCH  19  20
HETATM   20  C           1     172.075 189.527 272.634  0.00  0.00     0.034 C 
BRANCH  20  21
HETATM   21  C           1     172.161 188.925 274.031  0.00  0.00    -0.010 C 
HETATM   22  C           1     171.202 187.742 274.126  0.00  0.00     0.035 C 
HETATM   23  C           1     171.388 186.982 275.437  0.00  0.00     0.273 C 
HETATM   24  N           1     172.775 186.552 275.614  0.00  0.00     0.093 N 
HETATM   25  C           1     173.695 187.690 275.602  0.00  0.00     0.273 C 
HETATM   26  C           1     173.594 188.475 274.295  0.00  0.00     0.035 C 
BRANCH  24  27
HETATM   27  C           1     172.840 185.951 276.920  0.00  0.00     0.223 C 
HETATM   28  C           1     173.868 186.655 277.793  0.00  0.00     0.036 C 
HETATM   29  C           1     173.368 186.490 279.227  0.00  0.00     0.002 C 
HETATM   30  C           1     171.947 185.940 279.126  0.00  0.00     0.002 C 
HETATM   31  C           1     171.539 186.153 277.677  0.00  0.00     0.036 C 
ENDBRANCH  24  27
ENDBRANCH  20  21
ENDBRANCH  19  20
ENDBRANCH  17  19
ENDBRANCH  16  17
ENDBRANCH  11  16
BRANCH  12  32
HETATM   32  S           1     173.520 185.186 268.173  0.00  0.00    -0.107 SA
BRANCH  32  33
HETATM   33  C           1     174.633 186.389 267.393  0.00  0.00     0.119 C 
BRANCH  33  34
HETATM   34  C           1     174.017 187.753 267.455  0.00  0.00    -0.049 A 
HETATM   35  C           1     174.739 188.821 267.987  0.00  0.00     0.008 A 
HETATM   36  C           1     174.166 190.091 268.045  0.00  0.00     0.001 A 
HETATM   37  C           1     172.869 190.293 267.571  0.00  0.00     0.000 A 
HETATM   38  C           1     172.147 189.225 267.039  0.00  0.00     0.001 A 
HETATM   39  C           1     172.721 187.954 266.981  0.00  0.00     0.008 A 
ENDBRANCH  33  34
ENDBRANCH  32  33
ENDBRANCH  12  32
ENDBRANCH   1   9
TORSDOF 10
ENDMDL
MODEL 2
REMARK VINA RESULT:      -9.3      6.366     10.899
REMARK  10 active torsions:
REMARK  status: ('A' for Active; 'I' for Inactive)
REMARK    1  A    between atoms: C_1  and  C_19 
REMARK    2  A    between atoms: C_5  and  S_29 
REMARK    3  A    between atoms: C_6  and  C_8 
REMARK    4  A    between atoms: C_8  and  N_9 
REMARK    5  A    between atoms: N_9  and  C_10 
REMARK    6  A    between atoms: C_10  and  C_11 
REMARK    7  A    between atoms: C_11  and  C_12 
REMARK    8  A    between atoms: N_15  and  C_18 
REMARK    9  A    between atoms: S_29  and  C_36 
REMARK   10  A    between atoms: C_30  and  C_36 
ROOT
HETATM    1  C           1     171.297 190.345 281.776  0.00  0.00    -0.025 A 
HETATM    2  C           1     171.876 191.584 281.505  0.00  0.00     0.014 A 
HETATM    3  C           1     171.573 192.685 282.306  0.00  0.00     0.023 A 
HETATM    4  C           1     170.689 192.548 283.376  0.00  0.00     0.044 A 
HETATM    5  C           1     170.110 191.308 283.647  0.00  0.00     0.023 A 
HETATM    6  C           1     170.413 190.207 282.846  0.00  0.00     0.014 A 
HETATM    7  C           1     170.404 193.584 284.130  0.00  0.00     0.099 C 
HETATM    8  N           1     170.152 194.499 284.795  0.00  0.00    -0.191 NA
ENDROOT
BRANCH   1   9
HETATM    9  C           1     171.587 189.289 281.008  0.00  0.00    -0.010 A 
HETATM   10  C           1     172.659 188.457 281.314  0.00  0.00     0.025 A 
HETATM   11  C           1     172.932 187.368 280.495  0.00  0.00     0.004 A 
HETATM   12  C           1     172.116 187.154 279.394  0.00  0.00     0.077 A 
HETATM   13  N           1     171.068 187.944 279.072  0.00  0.00    -0.359 N 
HETATM   14  C           1     170.827 188.994 279.887  0.00  0.00     0.101 A 
ATOM     15  HN          1     170.488 187.756 278.254  1.00  0.00     0.166 HD
BRANCH  11  16
HETATM   16  C           1     174.077 186.451 280.791  0.00  0.00     0.311 C 
BRANCH  16  17
HETATM   17  N           1     175.071 187.153 281.557  0.00  0.00     0.087 N 
HETATM   18  H           1     175.829 187.449 280.940  0.00  0.00     0.316 HD
BRANCH  17  19
HETATM   19  C           1     175.584 186.245 282.546  0.00  0.00     0.270 C 
BRANCH  19  20
HETATM   20  C           1     174.688 185.016 282.620  0.00  0.00     0.034 C 
BRANCH  20  21
HETATM   21  C           1     174.133 184.876 284.031  0.00  0.00    -0.010 C 
HETATM   22  C           1     175.191 185.324 285.033  0.00  0.00     0.035 C 
HETATM   23  C           1     174.623 185.389 286.449  0.00  0.00     0.273 C 
HETATM   24  N           1     173.440 186.248 286.512  0.00  0.00     0.093 N 
HETATM   25  C           1     172.388 185.779 285.609  0.00  0.00     0.273 C 
HETATM   26  C           1     172.875 185.730 284.162  0.00  0.00     0.035 C 
BRANCH  24  27
HETATM   27  C           1     172.942 186.140 287.858  0.00  0.00     0.223 C 
HETATM   28  C           1     174.024 185.631 288.799  0.00  0.00     0.036 C 
HETATM   29  C           1     173.690 186.229 290.165  0.00  0.00     0.002 C 
HETATM   30  C           1     172.599 187.270 289.924  0.00  0.00     0.002 C 
HETATM   31  C           1     172.600 187.507 288.422  0.00  0.00     0.036 C 
ENDBRANCH  24  27
ENDBRANCH  20  21
ENDBRANCH  19  20
ENDBRANCH  17  19
ENDBRANCH  16  17
ENDBRANCH  11  16
BRANCH  12  32
HETATM   32  S           1     172.476 185.732 278.326  0.00  0.00    -0.107 SA
BRANCH  32  33
HETATM   33  C           1     173.138 186.751 276.978  0.00  0.00     0.119 C 
BRANCH  33  34
HETATM   34  C           1     174.512 186.274 276.619  0.00  0.00    -0.049 A 
HETATM   35  C           1     174.675 185.284 275.651  0.00  0.00     0.008 A 
HETATM   36  C           1     175.954 184.839 275.316  0.00  0.00     0.001 A 
HETATM   37  C           1     177.070 185.386 275.951  0.00  0.00     0.000 A 
HETATM   38  C           1     176.906 186.376 276.919  0.00  0.00     0.001 A 
HETATM   39  C           1     175.627 186.820 277.254  0.00  0.00     0.008 A 
ENDBRANCH  33  34
ENDBRANCH  32  33
ENDBRANCH  12  32
ENDBRANCH   1   9
TORSDOF 10
ENDMDL
MODEL 3
REMARK VINA RESULT:      -8.9      3.393      9.131
REMARK  10 active torsions:
REMARK  status: ('A' for Active; 'I' for Inactive)
REMARK    1  A    between atoms: C_1  and  C_19 
REMARK    2  A    between atoms: C_5  and  S_29 
REMARK    3  A    between atoms: C_6  and  C_8 
REMARK    4  A    between atoms: C_8  and  N_9 
REMARK    5  A    between atoms: N_9  and  C_10 
REMARK    6  A    between atoms: C_10  and  C_11 
REMARK    7  A    between atoms: C_11  and  C_12 
REMARK    8  A    between atoms: N_15  and  C_18 
REMARK    9  A    between atoms: S_29  and  C_36 
REMARK   10  A    between atoms: C_30  and  C_36 
ROOT
HETATM    1  C           1     174.955 185.843 275.304  0.00  0.00    -0.025 A 
HETATM    2  C           1     176.281 186.056 274.928  0.00  0.00     0.014 A 
HETATM    3  C           1     176.697 185.745 273.633  0.00  0.00     0.023 A 
HETATM    4  C           1     175.788 185.220 272.715  0.00  0.00     0.044 A 
HETATM    5  C           1     174.462 185.007 273.091  0.00  0.00     0.023 A 
HETATM    6  C           1     174.046 185.317 274.386  0.00  0.00     0.014 A 
HETATM    7  C           1     176.179 184.927 271.496  0.00  0.00     0.099 C 
HETATM    8  N           1     176.525 184.669 270.421  0.00  0.00    -0.191 NA
ENDROOT
BRANCH   1   9
HETATM    9  C           1     174.556 186.140 276.545  0.00  0.00    -0.010 A 
HETATM   10  C           1     173.264 185.847 276.969  0.00  0.00     0.025 A 
HETATM   11  C           1     172.883 186.170 278.266  0.00  0.00     0.004 A 
HETATM   12  C           1     173.816 186.779 279.092  0.00  0.00     0.077 A 
HETATM   13  N           1     175.077 187.076 278.709  0.00  0.00    -0.359 N 
HETATM   14  C           1     175.419 186.750 277.443  0.00  0.00     0.101 A 
ATOM     15  HN          1     175.739 187.523 279.344  1.00  0.00     0.166 HD
BRANCH  11  16
HETATM   16  C           1     171.502 185.871 278.759  0.00  0.00     0.311 C 
BRANCH  16  17
HETATM   17  N           1     170.615 185.713 277.638  0.00  0.00     0.087 N 
HETATM   18  H           1     171.150 185.425 276.819  0.00  0.00     0.316 HD
BRANCH  17  19
HETATM   19  C           1     170.000 186.988 277.385  0.00  0.00     0.270 C 
BRANCH  19  20
HETATM   20  C           1     169.693 187.117 275.899  0.00  0.00     0.034 C 
BRANCH  20  21
HETATM   21  C           1     170.968 187.476 275.146  0.00  0.00    -0.010 C 
HETATM   22  C           1     170.686 187.459 273.647  0.00  0.00     0.035 C 
HETATM   23  C           1     171.874 187.999 272.854  0.00  0.00     0.273 C 
HETATM   24  N           1     172.253 189.339 273.303  0.00  0.00     0.093 N 
HETATM   25  C           1     172.600 189.349 274.725  0.00  0.00     0.273 C 
HETATM   26  C           1     171.438 188.859 275.587  0.00  0.00     0.035 C 
BRANCH  24  27
HETATM   27  C           1     173.436 189.686 272.562  0.00  0.00     0.223 C 
HETATM   28  C           1     174.599 188.780 272.936  0.00  0.00     0.036 C 
HETATM   29  C           1     175.478 188.706 271.688  0.00  0.00     0.002 C 
HETATM   30  C           1     174.672 189.341 270.557  0.00  0.00     0.002 C 
HETATM   31  C           1     173.246 189.420 271.079  0.00  0.00     0.036 C 
ENDBRANCH  24  27
ENDBRANCH  20  21
ENDBRANCH  19  20
ENDBRANCH  17  19
ENDBRANCH  16  17
ENDBRANCH  11  16
BRANCH  12  32
HETATM   32  S           1     173.315 187.200 280.784  0.00  0.00    -0.107 SA
BRANCH  32  33
HETATM   33  C           1     174.667 186.264 281.552  0.00  0.00     0.119 C 
BRANCH  33  34
HETATM   34  C           1     174.269 185.857 282.937  0.00  0.00    -0.049 A 
HETATM   35  C           1     175.246 185.533 283.877  0.00  0.00     0.008 A 
HETATM   36  C           1     174.876 185.153 285.168  0.00  0.00     0.001 A 
HETATM   37  C           1     173.526 185.097 285.516  0.00  0.00     0.000 A 
HETATM   38  C           1     172.549 185.420 284.576  0.00  0.00     0.001 A 
HETATM   39  C           1     172.919 185.800 283.286  0.00  0.00     0.008 A 
ENDBRANCH  33  34
ENDBRANCH  32  33
ENDBRANCH  12  32
ENDBRANCH   1   9
TORSDOF 10
ENDMDL
MODEL 4
REMARK VINA RESULT:      -8.8      5.406     11.678
REMARK  10 active torsions:
REMARK  status: ('A' for Active; 'I' for Inactive)
REMARK    1  A    between atoms: C_1  and  C_19 
REMARK    2  A    between atoms: C_5  and  S_29 
REMARK    3  A    between atoms: C_6  and  C_8 
REMARK    4  A    between atoms: C_8  and  N_9 
REMARK    5  A    between atoms: N_9  and  C_10 
REMARK    6  A    between atoms: C_10  and  C_11 
REMARK    7  A    between atoms: C_11  and  C_12 
REMARK    8  A    between atoms: N_15  and  C_18 
REMARK    9  A    between atoms: S_29  and  C_36 
REMARK   10  A    between atoms: C_30  and  C_36 
ROOT
HETATM    1  C           1     171.969 190.536 281.933  0.00  0.00    -0.025 A 
HETATM    2  C           1     171.214 190.730 280.777  0.00  0.00     0.014 A 
HETATM    3  C           1     170.345 191.818 280.685  0.00  0.00     0.023 A 
HETATM    4  C           1     170.231 192.710 281.752  0.00  0.00     0.044 A 
HETATM    5  C           1     170.986 192.516 282.908  0.00  0.00     0.023 A 
HETATM    6  C           1     171.854 191.428 282.999  0.00  0.00     0.014 A 
HETATM    7  C           1     169.414 193.734 281.666  0.00  0.00     0.099 C 
HETATM    8  N           1     168.692 194.638 281.591  0.00  0.00    -0.191 NA
ENDROOT
BRANCH   1   9
HETATM    9  C           1     172.801 189.493 282.021  0.00  0.00    -0.010 A 
HETATM   10  C           1     172.876 188.552 281.000  0.00  0.00     0.025 A 
HETATM   11  C           1     173.753 187.480 281.123  0.00  0.00     0.004 A 
HETATM   12  C           1     174.524 187.393 282.273  0.00  0.00     0.077 A 
HETATM   13  N           1     174.473 188.291 283.281  0.00  0.00    -0.359 N 
HETATM   14  C           1     173.612 189.321 283.132  0.00  0.00     0.101 A 
ATOM     15  HN          1     175.056 188.196 284.112  1.00  0.00     0.166 HD
BRANCH  11  16
HETATM   16  C           1     173.862 186.447 280.046  0.00  0.00     0.311 C 
BRANCH  16  17
HETATM   17  N           1     172.565 185.879 279.791  0.00  0.00     0.087 N 
HETATM   18  H           1     172.409 185.093 280.423  0.00  0.00     0.316 HD
BRANCH  17  19
HETATM   19  C           1     172.552 185.412 278.432  0.00  0.00     0.270 C 
BRANCH  19  20
HETATM   20  C           1     173.482 186.275 277.589  0.00  0.00     0.034 C 
BRANCH  20  21
HETATM   21  C           1     173.582 185.694 276.185  0.00  0.00    -0.010 C 
HETATM   22  C           1     173.038 186.706 275.183  0.00  0.00     0.035 C 
HETATM   23  C           1     173.293 186.256 273.746  0.00  0.00     0.273 C 
HETATM   24  N           1     174.713 185.994 273.511  0.00  0.00     0.093 N 
HETATM   25  C           1     175.225 184.966 274.418  0.00  0.00     0.273 C 
HETATM   26  C           1     175.042 185.370 275.880  0.00  0.00     0.035 C 
BRANCH  24  27
HETATM   27  C           1     174.805 185.480 272.170  0.00  0.00     0.223 C 
HETATM   28  C           1     176.233 185.072 271.841  0.00  0.00     0.036 C 
HETATM   29  C           1     176.109 183.942 270.819  0.00  0.00     0.002 C 
HETATM   30  C           1     174.634 183.548 270.790  0.00  0.00     0.002 C 
HETATM   31  C           1     174.028 184.182 272.032  0.00  0.00     0.036 C 
ENDBRANCH  24  27
ENDBRANCH  20  21
ENDBRANCH  19  20
ENDBRANCH  17  19
ENDBRANCH  16  17
ENDBRANCH  11  16
BRANCH  12  32
HETATM   32  S           1     175.667 185.992 282.432  0.00  0.00    -0.107 SA
BRANCH  32  33
HETATM   33  C           1     174.347 184.788 282.750  0.00  0.00     0.119 C 
BRANCH  33  34
HETATM   34  C           1     173.930 184.872 284.186  0.00  0.00    -0.049 A 
HETATM   35  C           1     174.865 184.657 285.198  0.00  0.00     0.008 A 
HETATM   36  C           1     174.477 184.735 286.536  0.00  0.00     0.001 A 
HETATM   37  C           1     173.152 185.027 286.860  0.00  0.00     0.000 A 
HETATM   38  C           1     172.217 185.242 285.849  0.00  0.00     0.001 A 
HETATM   39  C           1     172.605 185.164 284.511  0.00  0.00     0.008 A 
ENDBRANCH  33  34
ENDBRANCH  32  33
ENDBRANCH  12  32
ENDBRANCH   1   9
TORSDOF 10
ENDMDL
MODEL 5
REMARK VINA RESULT:      -8.6      3.918      8.704
REMARK  10 active torsions:
REMARK  status: ('A' for Active; 'I' for Inactive)
REMARK    1  A    between atoms: C_1  and  C_19 
REMARK    2  A    between atoms: C_5  and  S_29 
REMARK    3  A    between atoms: C_6  and  C_8 
REMARK    4  A    between atoms: C_8  and  N_9 
REMARK    5  A    between atoms: N_9  and  C_10 
REMARK    6  A    between atoms: C_10  and  C_11 
REMARK    7  A    between atoms: C_11  and  C_12 
REMARK    8  A    between atoms: N_15  and  C_18 
REMARK    9  A    between atoms: S_29  and  C_36 
REMARK   10  A    between atoms: C_30  and  C_36 
ROOT
HETATM    1  C           1     176.041 185.587 273.491  0.00  0.00    -0.025 A 
HETATM    2  C           1     177.253 186.271 273.591  0.00  0.00     0.014 A 
HETATM    3  C           1     177.914 186.344 274.817  0.00  0.00     0.023 A 
HETATM    4  C           1     177.361 185.736 275.945  0.00  0.00     0.044 A 
HETATM    5  C           1     176.150 185.053 275.845  0.00  0.00     0.023 A 
HETATM    6  C           1     175.489 184.979 274.618  0.00  0.00     0.014 A 
HETATM    7  C           1     177.982 185.805 277.099  0.00  0.00     0.099 C 
HETATM    8  N           1     178.531 185.866 278.118  0.00  0.00    -0.191 NA
ENDROOT
BRANCH   1   9
HETATM    9  C           1     175.408 185.517 272.315  0.00  0.00    -0.010 A 
HETATM   10  C           1     175.291 184.307 271.640  0.00  0.00     0.025 A 
HETATM   11  C           1     174.626 184.269 270.419  0.00  0.00     0.004 A 
HETATM   12  C           1     174.103 185.453 269.921  0.00  0.00     0.077 A 
HETATM   13  N           1     174.201 186.642 270.554  0.00  0.00    -0.359 N 
HETATM   14  C           1     174.852 186.647 271.737  0.00  0.00     0.101 A 
ATOM     15  HN          1     173.802 187.494 270.158  1.00  0.00     0.166 HD
BRANCH  11  16
HETATM   16  C           1     174.479 182.987 269.662  0.00  0.00     0.311 C 
BRANCH  16  17
HETATM   17  N           1     175.774 182.526 269.240  0.00  0.00     0.087 N 
HETATM   18  H           1     176.497 183.093 269.684  0.00  0.00     0.316 HD
BRANCH  17  19
HETATM   19  C           1     175.850 182.684 267.813  0.00  0.00     0.270 C 
BRANCH  19  20
HETATM   20  C           1     176.719 183.889 267.480  0.00  0.00     0.034 C 
BRANCH  20  21
HETATM   21  C           1     177.238 183.764 266.054  0.00  0.00    -0.010 C 
HETATM   22  C           1     177.472 182.291 265.734  0.00  0.00     0.035 C 
HETATM   23  C           1     177.806 182.091 264.257  0.00  0.00     0.273 C 
HETATM   24  N           1     176.773 182.661 263.392  0.00  0.00     0.093 N 
HETATM   25  C           1     176.597 184.093 263.639  0.00  0.00     0.273 C 
HETATM   26  C           1     176.217 184.366 265.094  0.00  0.00     0.035 C 
BRANCH  24  27
HETATM   27  C           1     177.254 182.506 262.045  0.00  0.00     0.223 C 
HETATM   28  C           1     178.773 182.556 262.000  0.00  0.00     0.036 C 
HETATM   29  C           1     179.175 181.696 260.803  0.00  0.00     0.002 C 
HETATM   30  C           1     177.913 180.961 260.359  0.00  0.00     0.002 C 
HETATM   31  C           1     176.932 181.121 261.510  0.00  0.00     0.036 C 
ENDBRANCH  24  27
ENDBRANCH  20  21
ENDBRANCH  19  20
ENDBRANCH  17  19
ENDBRANCH  16  17
ENDBRANCH  11  16
BRANCH  12  32
HETATM   32  S           1     173.236 185.401 268.328  0.00  0.00    -0.107 SA
BRANCH  32  33
HETATM   33  C           1     174.239 186.724 267.595  0.00  0.00     0.119 C 
BRANCH  33  34
HETATM   34  C           1     173.396 187.949 267.415  0.00  0.00    -0.049 A 
HETATM   35  C           1     173.840 189.179 267.899  0.00  0.00     0.008 A 
HETATM   36  C           1     173.055 190.320 267.732  0.00  0.00     0.001 A 
HETATM   37  C           1     171.825 190.229 267.081  0.00  0.00     0.000 A 
HETATM   38  C           1     171.381 189.000 266.597  0.00  0.00     0.001 A 
HETATM   39  C           1     172.166 187.858 266.764  0.00  0.00     0.008 A 
ENDBRANCH  33  34
ENDBRANCH  32  33
ENDBRANCH  12  32
ENDBRANCH   1   9
TORSDOF 10
ENDMDL
MODEL 6
REMARK VINA RESULT:      -8.6      2.407      4.648
REMARK  10 active torsions:
REMARK  status: ('A' for Active; 'I' for Inactive)
REMARK    1  A    between atoms: C_1  and  C_19 
REMARK    2  A    between atoms: C_5  and  S_29 
REMARK    3  A    between atoms: C_6  and  C_8 
REMARK    4  A    between atoms: C_8  and  N_9 
REMARK    5  A    between atoms: N_9  and  C_10 
REMARK    6  A    between atoms: C_10  and  C_11 
REMARK    7  A    between atoms: C_11  and  C_12 
REMARK    8  A    between atoms: N_15  and  C_18 
REMARK    9  A    between atoms: S_29  and  C_36 
REMARK   10  A    between atoms: C_30  and  C_36 
ROOT
HETATM    1  C           1     175.936 185.421 273.251  0.00  0.00    -0.025 A 
HETATM    2  C           1     177.131 186.130 273.373  0.00  0.00     0.014 A 
HETATM    3  C           1     177.710 186.311 274.629  0.00  0.00     0.023 A 
HETATM    4  C           1     177.092 185.786 275.764  0.00  0.00     0.044 A 
HETATM    5  C           1     175.897 185.078 275.643  0.00  0.00     0.023 A 
HETATM    6  C           1     175.318 184.896 274.386  0.00  0.00     0.014 A 
HETATM    7  C           1     177.637 185.957 276.946  0.00  0.00     0.099 C 
HETATM    8  N           1     178.117 186.108 277.990  0.00  0.00    -0.191 NA
ENDROOT
BRANCH   1   9
HETATM    9  C           1     175.381 185.247 272.047  0.00  0.00    -0.010 A 
HETATM   10  C           1     174.308 184.379 271.875  0.00  0.00     0.025 A 
HETATM   11  C           1     173.755 184.222 270.609  0.00  0.00     0.004 A 
HETATM   12  C           1     174.304 184.944 269.559  0.00  0.00     0.077 A 
HETATM   13  N           1     175.345 185.793 269.696  0.00  0.00    -0.359 N 
HETATM   14  C           1     175.861 185.925 270.938  0.00  0.00     0.101 A 
ATOM     15  HN          1     175.723 186.309 268.901  1.00  0.00     0.166 HD
BRANCH  11  16
HETATM   16  C           1     172.599 183.298 270.384  0.00  0.00     0.311 C 
BRANCH  16  17
HETATM   17  N           1     171.512 183.668 271.250  0.00  0.00     0.087 N 
HETATM   18  H           1     170.838 182.902 271.294  0.00  0.00     0.316 HD
BRANCH  17  19
HETATM   19  C           1     170.882 184.831 270.689  0.00  0.00     0.270 C 
BRANCH  19  20
HETATM   20  C           1     170.285 185.675 271.807  0.00  0.00     0.034 C 
BRANCH  20  21
HETATM   21  C           1     171.024 187.004 271.892  0.00  0.00    -0.010 C 
HETATM   22  C           1     172.081 186.921 272.987  0.00  0.00     0.035 C 
HETATM   23  C           1     172.981 188.155 272.984  0.00  0.00     0.273 C 
HETATM   24  N           1     173.596 188.367 271.674  0.00  0.00     0.093 N 
HETATM   25  C           1     172.585 188.525 270.627  0.00  0.00     0.273 C 
HETATM   26  C           1     171.672 187.303 270.543  0.00  0.00     0.035 C 
BRANCH  24  27
HETATM   27  C           1     174.322 189.605 271.771  0.00  0.00     0.223 C 
HETATM   28  C           1     175.567 189.576 270.898  0.00  0.00     0.036 C 
HETATM   29  C           1     175.816 191.028 270.493  0.00  0.00     0.002 C 
HETATM   30  C           1     174.572 191.810 270.911  0.00  0.00     0.002 C 
HETATM   31  C           1     173.515 190.755 271.194  0.00  0.00     0.036 C 
ENDBRANCH  24  27
ENDBRANCH  20  21
ENDBRANCH  19  20
ENDBRANCH  17  19
ENDBRANCH  16  17
ENDBRANCH  11  16
BRANCH  12  32
HETATM   32  S           1     173.580 184.736 267.909  0.00  0.00    -0.107 SA
BRANCH  32  33
HETATM   33  C           1     174.846 185.745 267.088  0.00  0.00     0.119 C 
BRANCH  33  34
HETATM   34  C           1     175.676 184.877 266.194  0.00  0.00    -0.049 A 
HETATM   35  C           1     176.647 184.040 266.740  0.00  0.00     0.008 A 
HETATM   36  C           1     177.421 183.231 265.908  0.00  0.00     0.001 A 
HETATM   37  C           1     177.222 183.261 264.527  0.00  0.00     0.000 A 
HETATM   38  C           1     176.250 184.099 263.980  0.00  0.00     0.001 A 
HETATM   39  C           1     175.477 184.908 264.813  0.00  0.00     0.008 A 
ENDBRANCH  33  34
ENDBRANCH  32  33
ENDBRANCH  12  32
ENDBRANCH   1   9
TORSDOF 10
ENDMDL
MODEL 7
REMARK VINA RESULT:      -8.5      3.711      7.988
REMARK  10 active torsions:
REMARK  status: ('A' for Active; 'I' for Inactive)
REMARK    1  A    between atoms: C_1  and  C_19 
REMARK    2  A    between atoms: C_5  and  S_29 
REMARK    3  A    between atoms: C_6  and  C_8 
REMARK    4  A    between atoms: C_8  and  N_9 
REMARK    5  A    between atoms: N_9  and  C_10 
REMARK    6  A    between atoms: C_10  and  C_11 
REMARK    7  A    between atoms: C_11  and  C_12 
REMARK    8  A    between atoms: N_15  and  C_18 
REMARK    9  A    between atoms: S_29  and  C_36 
REMARK   10  A    between atoms: C_30  and  C_36 
ROOT
HETATM    1  C           1     173.718 185.984 282.649  0.00  0.00    -0.025 A 
HETATM    2  C           1     174.663 185.144 283.238  0.00  0.00     0.014 A 
HETATM    3  C           1     174.618 184.895 284.610  0.00  0.00     0.023 A 
HETATM    4  C           1     173.629 185.489 285.394  0.00  0.00     0.044 A 
HETATM    5  C           1     172.684 186.329 284.806  0.00  0.00     0.023 A 
HETATM    6  C           1     172.729 186.578 283.434  0.00  0.00     0.014 A 
HETATM    7  C           1     173.586 185.256 286.685  0.00  0.00     0.099 C 
HETATM    8  N           1     173.549 185.050 287.824  0.00  0.00    -0.191 NA
ENDROOT
BRANCH   1   9
HETATM    9  C           1     173.761 186.221 281.335  0.00  0.00    -0.010 A 
HETATM   10  C           1     172.717 185.828 280.504  0.00  0.00     0.025 A 
HETATM   11  C           1     172.795 186.092 279.141  0.00  0.00     0.004 A 
HETATM   12  C           1     173.922 186.742 278.661  0.00  0.00     0.077 A 
HETATM   13  N           1     174.951 187.136 279.443  0.00  0.00    -0.359 N 
HETATM   14  C           1     174.847 186.866 280.763  0.00  0.00     0.101 A 
ATOM     15  HN          1     175.765 187.613 279.056  1.00  0.00     0.166 HD
BRANCH  11  16
HETATM   16  C           1     171.692 185.684 278.215  0.00  0.00     0.311 C 
BRANCH  16  17
HETATM   17  N           1     170.483 186.377 278.572  0.00  0.00     0.087 N 
HETATM   18  H           1     169.676 185.837 278.257  0.00  0.00     0.316 HD
BRANCH  17  19
HETATM   19  C           1     170.497 187.651 277.907  0.00  0.00     0.270 C 
BRANCH  19  20
HETATM   20  C           1     169.437 187.665 276.813  0.00  0.00     0.034 C 
BRANCH  20  21
HETATM   21  C           1     170.061 188.140 275.507  0.00  0.00    -0.010 C 
HETATM   22  C           1     171.006 189.302 275.796  0.00  0.00     0.035 C 
HETATM   23  C           1     171.805 189.689 274.554  0.00  0.00     0.273 C 
HETATM   24  N           1     172.532 188.544 274.005  0.00  0.00     0.093 N 
HETATM   25  C           1     171.623 187.452 273.652  0.00  0.00     0.273 C 
HETATM   26  C           1     170.818 186.982 274.863  0.00  0.00     0.035 C 
BRANCH  24  27
HETATM   27  C           1     173.148 189.009 272.792  0.00  0.00     0.223 C 
HETATM   28  C           1     174.665 188.941 272.891  0.00  0.00     0.036 C 
HETATM   29  C           1     175.158 188.725 271.461  0.00  0.00     0.002 C 
HETATM   30  C           1     173.922 188.406 270.624  0.00  0.00     0.002 C 
HETATM   31  C           1     172.830 188.083 271.631  0.00  0.00     0.036 C 
ENDBRANCH  24  27
ENDBRANCH  20  21
ENDBRANCH  19  20
ENDBRANCH  17  19
ENDBRANCH  16  17
ENDBRANCH  11  16
BRANCH  12  32
HETATM   32  S           1     174.020 187.083 276.882  0.00  0.00    -0.107 SA
BRANCH  32  33
HETATM   33  C           1     175.241 185.777 276.570  0.00  0.00     0.119 C 
BRANCH  33  34
HETATM   34  C           1     175.451 185.631 275.095  0.00  0.00    -0.049 A 
HETATM   35  C           1     174.434 185.113 274.294  0.00  0.00     0.008 A 
HETATM   36  C           1     174.629 184.977 272.919  0.00  0.00     0.001 A 
HETATM   37  C           1     175.843 185.357 272.347  0.00  0.00     0.000 A 
HETATM   38  C           1     176.860 185.875 273.148  0.00  0.00     0.001 A 
HETATM   39  C           1     176.665 186.011 274.522  0.00  0.00     0.008 A 
ENDBRANCH  33  34
ENDBRANCH  32  33
ENDBRANCH  12  32
ENDBRANCH   1   9
TORSDOF 10
ENDMDL
MODEL 8
REMARK VINA RESULT:      -8.4      2.967      7.620
REMARK  10 active torsions:
REMARK  status: ('A' for Active; 'I' for Inactive)
REMARK    1  A    between atoms: C_1  and  C_19 
REMARK    2  A    between atoms: C_5  and  S_29 
REMARK    3  A    between atoms: C_6  and  C_8 
REMARK    4  A    between atoms: C_8  and  N_9 
REMARK    5  A    between atoms: N_9  and  C_10 
REMARK    6  A    between atoms: C_10  and  C_11 
REMARK    7  A    between atoms: C_11  and  C_12 
REMARK    8  A    between atoms: N_15  and  C_18 
REMARK    9  A    between atoms: S_29  and  C_36 
REMARK   10  A    between atoms: C_30  and  C_36 
ROOT
HETATM    1  C           1     174.091 186.498 277.426  0.00  0.00    -0.025 A 
HETATM    2  C           1     174.892 187.064 278.418  0.00  0.00     0.014 A 
HETATM    3  C           1     174.563 186.895 279.763  0.00  0.00     0.023 A 
HETATM    4  C           1     173.430 186.162 280.116  0.00  0.00     0.044 A 
HETATM    5  C           1     172.629 185.596 279.125  0.00  0.00     0.023 A 
HETATM    6  C           1     172.958 185.765 277.780  0.00  0.00     0.014 A 
HETATM    7  C           1     173.119 186.002 281.382  0.00  0.00     0.099 C 
HETATM    8  N           1     172.846 185.862 282.498  0.00  0.00    -0.191 NA
ENDROOT
BRANCH   1   9
HETATM    9  C           1     174.407 186.660 276.138  0.00  0.00    -0.010 A 
HETATM   10  C           1     174.533 185.565 275.290  0.00  0.00     0.025 A 
HETATM   11  C           1     174.863 185.770 273.955  0.00  0.00     0.004 A 
HETATM   12  C           1     175.054 187.072 273.520  0.00  0.00     0.077 A 
HETATM   13  N           1     174.938 188.156 274.318  0.00  0.00    -0.359 N 
HETATM   14  C           1     174.617 187.925 275.610  0.00  0.00     0.101 A 
ATOM     15  HN          1     175.085 189.101 273.963  1.00  0.00     0.166 HD
BRANCH  11  16
HETATM   16  C           1     175.008 184.616 273.013  0.00  0.00     0.311 C 
BRANCH  16  17
HETATM   17  N           1     173.731 184.313 272.423  0.00  0.00     0.087 N 
HETATM   18  H           1     173.256 183.608 272.988  0.00  0.00     0.316 HD
BRANCH  17  19
HETATM   19  C           1     173.971 183.792 271.106  0.00  0.00     0.270 C 
BRANCH  19  20
HETATM   20  C           1     175.207 182.902 271.128  0.00  0.00     0.034 C 
BRANCH  20  21
HETATM   21  C           1     175.906 182.968 269.777  0.00  0.00    -0.010 C 
HETATM   22  C           1     174.875 182.778 268.669  0.00  0.00     0.035 C 
HETATM   23  C           1     175.488 183.030 267.293  0.00  0.00     0.273 C 
HETATM   24  N           1     176.106 184.353 267.215  0.00  0.00     0.093 N 
HETATM   25  C           1     177.152 184.516 268.226  0.00  0.00     0.273 C 
HETATM   26  C           1     176.600 184.320 269.638  0.00  0.00     0.035 C 
BRANCH  24  27
HETATM   27  C           1     176.734 184.423 265.922  0.00  0.00     0.223 C 
HETATM   28  C           1     177.354 183.087 265.546  0.00  0.00     0.036 C 
HETATM   29  C           1     177.306 183.030 264.019  0.00  0.00     0.002 C 
HETATM   30  C           1     176.426 184.195 263.574  0.00  0.00     0.002 C 
HETATM   31  C           1     175.703 184.653 264.831  0.00  0.00     0.036 C 
ENDBRANCH  24  27
ENDBRANCH  20  21
ENDBRANCH  19  20
ENDBRANCH  17  19
ENDBRANCH  16  17
ENDBRANCH  11  16
BRANCH  12  32
HETATM   32  S           1     175.485 187.336 271.777  0.00  0.00    -0.107 SA
BRANCH  32  33
HETATM   33  C           1     174.018 188.349 271.436  0.00  0.00     0.119 C 
BRANCH  33  34
HETATM   34  C           1     174.418 189.788 271.330  0.00  0.00    -0.049 A 
HETATM   35  C           1     173.597 190.782 271.861  0.00  0.00     0.008 A 
HETATM   36  C           1     173.969 192.122 271.761  0.00  0.00     0.001 A 
HETATM   37  C           1     175.164 192.468 271.130  0.00  0.00     0.000 A 
HETATM   38  C           1     175.985 191.475 270.599  0.00  0.00     0.001 A 
HETATM   39  C           1     175.613 190.134 270.698  0.00  0.00     0.008 A 
ENDBRANCH  33  34
ENDBRANCH  32  33
ENDBRANCH  12  32
ENDBRANCH   1   9
TORSDOF 10
ENDMDL
MODEL 9
REMARK VINA RESULT:      -8.4      8.670     13.762
REMARK  10 active torsions:
REMARK  status: ('A' for Active; 'I' for Inactive)
REMARK    1  A    between atoms: C_1  and  C_19 
REMARK    2  A    between atoms: C_5  and  S_29 
REMARK    3  A    between atoms: C_6  and  C_8 
REMARK    4  A    between atoms: C_8  and  N_9 
REMARK    5  A    between atoms: N_9  and  C_10 
REMARK    6  A    between atoms: C_10  and  C_11 
REMARK    7  A    between atoms: C_11  and  C_12 
REMARK    8  A    between atoms: N_15  and  C_18 
REMARK    9  A    between atoms: S_29  and  C_36 
REMARK   10  A    between atoms: C_30  and  C_36 
ROOT
HETATM    1  C           1     173.342 186.493 279.896  0.00  0.00    -0.025 A 
HETATM    2  C           1     172.493 185.696 279.129  0.00  0.00     0.014 A 
HETATM    3  C           1     172.812 185.415 277.800  0.00  0.00     0.023 A 
HETATM    4  C           1     173.979 185.932 277.239  0.00  0.00     0.044 A 
HETATM    5  C           1     174.829 186.728 278.006  0.00  0.00     0.023 A 
HETATM    6  C           1     174.510 187.010 279.335  0.00  0.00     0.014 A 
HETATM    7  C           1     174.280 185.667 275.989  0.00  0.00     0.099 C 
HETATM    8  N           1     174.545 185.433 274.885  0.00  0.00    -0.191 NA
ENDROOT
BRANCH   1   9
HETATM    9  C           1     173.037 186.763 281.170  0.00  0.00    -0.010 A 
HETATM   10  C           1     172.644 188.040 281.554  0.00  0.00     0.025 A 
HETATM   11  C           1     172.333 188.286 282.887  0.00  0.00     0.004 A 
HETATM   12  C           1     172.430 187.235 283.787  0.00  0.00     0.077 A 
HETATM   13  N           1     172.807 185.985 283.444  0.00  0.00    -0.359 N 
HETATM   14  C           1     173.103 185.776 282.142  0.00  0.00     0.101 A 
ATOM     15  HN          1     172.866 185.235 284.133  1.00  0.00     0.166 HD
BRANCH  11  16
HETATM   16  C           1     171.907 189.647 283.339  0.00  0.00     0.311 C 
BRANCH  16  17
HETATM   17  N           1     172.381 190.634 282.406  0.00  0.00     0.087 N 
HETATM   18  H           1     173.251 191.040 282.753  0.00  0.00     0.316 HD
BRANCH  17  19
HETATM   19  C           1     171.378 191.660 282.308  0.00  0.00     0.270 C 
BRANCH  19  20
HETATM   20  C           1     170.075 191.155 282.913  0.00  0.00     0.034 C 
BRANCH  20  21
HETATM   21  C           1     169.359 192.305 283.610  0.00  0.00    -0.010 C 
HETATM   22  C           1     168.661 191.777 284.859  0.00  0.00     0.035 C 
HETATM   23  C           1     168.092 192.918 285.700  0.00  0.00     0.273 C 
HETATM   24  N           1     169.125 193.894 286.047  0.00  0.00     0.093 N 
HETATM   25  C           1     169.747 194.463 284.851  0.00  0.00     0.273 C 
HETATM   26  C           1     170.378 193.379 283.979  0.00  0.00     0.035 C 
BRANCH  24  27
HETATM   27  C           1     168.448 194.959 286.737  0.00  0.00     0.223 C 
HETATM   28  C           1     168.845 194.996 288.205  0.00  0.00     0.036 C 
HETATM   29  C           1     168.713 196.459 288.628  0.00  0.00     0.002 C 
HETATM   30  C           1     168.509 197.260 287.344  0.00  0.00     0.002 C 
HETATM   31  C           1     168.896 196.314 286.218  0.00  0.00     0.036 C 
ENDBRANCH  24  27
ENDBRANCH  20  21
ENDBRANCH  19  20
ENDBRANCH  17  19
ENDBRANCH  16  17
ENDBRANCH  11  16
BRANCH  12  32
HETATM   32  S           1     172.024 187.559 285.526  0.00  0.00    -0.107 SA
BRANCH  32  33
HETATM   33  C           1     173.478 186.678 286.161  0.00  0.00     0.119 C 
BRANCH  33  34
HETATM   34  C           1     173.411 186.615 287.655  0.00  0.00    -0.049 A 
HETATM   35  C           1     172.566 187.477 288.353  0.00  0.00     0.008 A 
HETATM   36  C           1     172.503 187.419 289.745  0.00  0.00     0.001 A 
HETATM   37  C           1     173.288 186.498 290.439  0.00  0.00     0.000 A 
HETATM   38  C           1     174.134 185.636 289.742  0.00  0.00     0.001 A 
HETATM   39  C           1     174.196 185.695 288.350  0.00  0.00     0.008 A 
ENDBRANCH  33  34
ENDBRANCH  32  33
ENDBRANCH  12  32
ENDBRANCH   1   9
TORSDOF 10
ENDMDL
