MODEL 1
REMARK VINA RESULT:      -6.4      0.000      0.000
REMARK  10 active torsions:
REMARK  status: ('A' for Active; 'I' for Inactive)
REMARK    1  A    between atoms: C_5  and  S_17 
REMARK    2  A    between atoms: C_6  and  C_8 
REMARK    3  A    between atoms: C_8  and  N_9 
REMARK    4  A    between atoms: N_9  and  C_10 
REMARK    5  A    between atoms: C_10  and  C_11 
REMARK    6  A    between atoms: C_11  and  C_12 
REMARK    7  A    between atoms: C_12  and  C_13 
REMARK    8  A    between atoms: C_13  and  N_14 
REMARK    9  A    between atoms: S_17  and  C_24 
REMARK   10  A    between atoms: C_18  and  C_24 
ROOT
HETATM    1  C           1     175.776 184.998 285.919  0.00  0.00     0.018 A 
HETATM    2  C           1     175.704 185.372 287.251  0.00  0.00     0.089 A 
HETATM    3  N           1     174.576 185.812 287.849  0.00  0.00    -0.360 N 
ATOM      4  HN          1     174.561 186.079 288.834  1.00  0.00     0.166 HD
HETATM    5  C           1     173.470 185.881 287.076  0.00  0.00     0.077 A 
HETATM    6  C           1     173.442 185.530 285.737  0.00  0.00     0.003 A 
HETATM    7  C           1     174.620 185.080 285.150  0.00  0.00     0.013 A 
ENDROOT
BRANCH   6   8
HETATM    8  C           1     172.177 185.633 284.941  0.00  0.00     0.307 C 
BRANCH   8   9
HETATM    9  N           1     172.377 186.531 283.837  0.00  0.00     0.087 N 
HETATM   10  H           1     173.336 186.449 283.501  0.00  0.00     0.316 HD
BRANCH   9  11
HETATM   11  C           1     172.150 187.868 284.314  0.00  0.00     0.270 C 
BRANCH  11  12
HETATM   12  C           1     172.754 188.867 283.336  0.00  0.00     0.032 C 
BRANCH  12  13
HETATM   13  C           1     174.122 188.374 282.883  0.00  0.00     0.032 C 
BRANCH  13  14
HETATM   14  C           1     174.260 188.568 281.379  0.00  0.00     0.271 C 
BRANCH  14  15
HETATM   15  N           1     174.746 187.354 280.781  0.00  0.00     0.080 N 
HETATM   16  C           1     175.397 186.589 281.810  0.00  0.00     0.309 C 
HETATM   17  C           1     173.606 186.602 280.331  0.00  0.00     0.309 C 
ENDBRANCH  14  15
ENDBRANCH  13  14
ENDBRANCH  12  13
ENDBRANCH  11  12
ENDBRANCH   9  11
ENDBRANCH   8   9
ENDBRANCH   6   8
BRANCH   5  18
HETATM   18  S           1     171.931 186.469 287.839  0.00  0.00    -0.107 SA
BRANCH  18  19
HETATM   19  C           1     172.784 187.517 289.052  0.00  0.00     0.122 C 
BRANCH  19  20
HETATM   20  C           1     172.413 187.083 290.435  0.00  0.00    -0.049 A 
HETATM   21  C           1     171.650 187.921 291.249  0.00  0.00     0.008 A 
HETATM   22  C           1     171.305 187.516 292.538  0.00  0.00     0.001 A 
HETATM   23  C           1     171.722 186.274 293.015  0.00  0.00     0.000 A 
HETATM   24  C           1     172.486 185.436 292.202  0.00  0.00     0.001 A 
HETATM   25  C           1     172.831 185.841 290.913  0.00  0.00     0.008 A 
ENDBRANCH  19  20
ENDBRANCH  18  19
ENDBRANCH   5  18
TORSDOF 10
ENDMDL
MODEL 2
REMARK VINA RESULT:      -6.2      3.523      6.069
REMARK  10 active torsions:
REMARK  status: ('A' for Active; 'I' for Inactive)
REMARK    1  A    between atoms: C_5  and  S_17 
REMARK    2  A    between atoms: C_6  and  C_8 
REMARK    3  A    between atoms: C_8  and  N_9 
REMARK    4  A    between atoms: N_9  and  C_10 
REMARK    5  A    between atoms: C_10  and  C_11 
REMARK    6  A    between atoms: C_11  and  C_12 
REMARK    7  A    between atoms: C_12  and  C_13 
REMARK    8  A    between atoms: C_13  and  N_14 
REMARK    9  A    between atoms: S_17  and  C_24 
REMARK   10  A    between atoms: C_18  and  C_24 
ROOT
HETATM    1  C           1     172.824 189.649 282.458  0.00  0.00     0.018 A 
HETATM    2  C           1     173.410 189.181 283.623  0.00  0.00     0.089 A 
HETATM    3  N           1     174.267 188.138 283.668  0.00  0.00    -0.360 N 
ATOM      4  HN          1     174.680 187.821 284.545  1.00  0.00     0.166 HD
HETATM    5  C           1     174.550 187.537 282.490  0.00  0.00     0.077 A 
HETATM    6  C           1     174.016 187.932 281.275  0.00  0.00     0.003 A 
HETATM    7  C           1     173.136 189.009 281.262  0.00  0.00     0.013 A 
ENDROOT
BRANCH   6   8
HETATM    8  C           1     174.374 187.218 280.009  0.00  0.00     0.307 C 
BRANCH   8   9
HETATM    9  N           1     173.198 187.057 279.199  0.00  0.00     0.087 N 
HETATM   10  H           1     172.456 187.660 279.553  0.00  0.00     0.316 HD
BRANCH   9  11
HETATM   11  C           1     172.785 185.683 279.296  0.00  0.00     0.270 C 
BRANCH  11  12
HETATM   12  C           1     172.233 185.222 277.954  0.00  0.00     0.032 C 
BRANCH  12  13
HETATM   13  C           1     172.622 186.221 276.872  0.00  0.00     0.032 C 
BRANCH  13  14
HETATM   14  C           1     173.655 185.594 275.947  0.00  0.00     0.271 C 
BRANCH  14  15
HETATM   15  N           1     174.974 185.825 276.473  0.00  0.00     0.080 N 
HETATM   16  C           1     175.875 184.925 275.806  0.00  0.00     0.309 C 
HETATM   17  C           1     175.354 187.167 276.120  0.00  0.00     0.309 C 
ENDBRANCH  14  15
ENDBRANCH  13  14
ENDBRANCH  12  13
ENDBRANCH  11  12
ENDBRANCH   9  11
ENDBRANCH   8   9
ENDBRANCH   6   8
BRANCH   5  18
HETATM   18  S           1     175.697 186.130 282.504  0.00  0.00    -0.107 SA
BRANCH  18  19
HETATM   19  C           1     174.384 184.899 282.736  0.00  0.00     0.122 C 
BRANCH  19  20
HETATM   20  C           1     173.925 184.921 284.160  0.00  0.00    -0.049 A 
HETATM   21  C           1     174.827 184.651 285.189  0.00  0.00     0.008 A 
HETATM   22  C           1     174.399 184.671 286.516  0.00  0.00     0.001 A 
HETATM   23  C           1     173.068 184.960 286.815  0.00  0.00     0.000 A 
HETATM   24  C           1     172.164 185.229 285.786  0.00  0.00     0.001 A 
HETATM   25  C           1     172.593 185.209 284.459  0.00  0.00     0.008 A 
ENDBRANCH  19  20
ENDBRANCH  18  19
ENDBRANCH   5  18
TORSDOF 10
ENDMDL
MODEL 3
REMARK VINA RESULT:      -5.9      6.928     13.429
REMARK  10 active torsions:
REMARK  status: ('A' for Active; 'I' for Inactive)
REMARK    1  A    between atoms: C_5  and  S_17 
REMARK    2  A    between atoms: C_6  and  C_8 
REMARK    3  A    between atoms: C_8  and  N_9 
REMARK    4  A    between atoms: N_9  and  C_10 
REMARK    5  A    between atoms: C_10  and  C_11 
REMARK    6  A    between atoms: C_11  and  C_12 
REMARK    7  A    between atoms: C_12  and  C_13 
REMARK    8  A    between atoms: C_13  and  N_14 
REMARK    9  A    between atoms: S_17  and  C_24 
REMARK   10  A    between atoms: C_18  and  C_24 
ROOT
HETATM    1  C           1     177.608 185.556 276.037  0.00  0.00     0.018 A 
HETATM    2  C           1     177.961 186.500 275.086  0.00  0.00     0.089 A 
HETATM    3  N           1     177.071 187.148 274.303  0.00  0.00    -0.360 N 
ATOM      4  HN          1     177.367 187.839 273.613  1.00  0.00     0.166 HD
HETATM    5  C           1     175.768 186.836 274.482  0.00  0.00     0.077 A 
HETATM    6  C           1     175.318 185.907 275.406  0.00  0.00     0.003 A 
HETATM    7  C           1     176.259 185.256 276.197  0.00  0.00     0.013 A 
ENDROOT
BRANCH   6   8
HETATM    8  C           1     173.857 185.610 275.549  0.00  0.00     0.307 C 
BRANCH   8   9
HETATM    9  N           1     173.331 186.323 276.681  0.00  0.00     0.087 N 
HETATM   10  H           1     174.091 186.804 277.163  0.00  0.00     0.316 HD
BRANCH   9  11
HETATM   11  C           1     172.736 185.360 277.566  0.00  0.00     0.270 C 
BRANCH  11  12
HETATM   12  C           1     172.289 186.053 278.846  0.00  0.00     0.032 C 
BRANCH  12  13
HETATM   13  C           1     173.509 186.415 279.683  0.00  0.00     0.032 C 
BRANCH  13  14
HETATM   14  C           1     173.187 186.227 281.159  0.00  0.00     0.271 C 
BRANCH  14  15
HETATM   15  N           1     174.059 187.053 281.950  0.00  0.00     0.080 N 
HETATM   16  C           1     175.336 186.397 282.022  0.00  0.00     0.309 C 
HETATM   17  C           1     174.244 188.293 281.244  0.00  0.00     0.309 C 
ENDBRANCH  14  15
ENDBRANCH  13  14
ENDBRANCH  12  13
ENDBRANCH  11  12
ENDBRANCH   9  11
ENDBRANCH   8   9
ENDBRANCH   6   8
BRANCH   5  18
HETATM   18  S           1     174.538 187.683 273.451  0.00  0.00    -0.107 SA
BRANCH  18  19
HETATM   19  C           1     175.316 187.182 271.889  0.00  0.00     0.122 C 
BRANCH  19  20
HETATM   20  C           1     175.082 185.722 271.660  0.00  0.00    -0.049 A 
HETATM   21  C           1     176.137 184.898 271.267  0.00  0.00     0.008 A 
HETATM   22  C           1     175.919 183.538 271.054  0.00  0.00     0.001 A 
HETATM   23  C           1     174.644 182.999 271.232  0.00  0.00     0.000 A 
HETATM   24  C           1     173.588 183.822 271.624  0.00  0.00     0.001 A 
HETATM   25  C           1     173.807 185.183 271.838  0.00  0.00     0.008 A 
ENDBRANCH  19  20
ENDBRANCH  18  19
ENDBRANCH   5  18
TORSDOF 10
ENDMDL
MODEL 4
REMARK VINA RESULT:      -5.9      1.634      2.190
REMARK  10 active torsions:
REMARK  status: ('A' for Active; 'I' for Inactive)
REMARK    1  A    between atoms: C_5  and  S_17 
REMARK    2  A    between atoms: C_6  and  C_8 
REMARK    3  A    between atoms: C_8  and  N_9 
REMARK    4  A    between atoms: N_9  and  C_10 
REMARK    5  A    between atoms: C_10  and  C_11 
REMARK    6  A    between atoms: C_11  and  C_12 
REMARK    7  A    between atoms: C_12  and  C_13 
REMARK    8  A    between atoms: C_13  and  N_14 
REMARK    9  A    between atoms: S_17  and  C_24 
REMARK   10  A    between atoms: C_18  and  C_24 
ROOT
HETATM    1  C           1     174.955 184.575 285.416  0.00  0.00     0.018 A 
HETATM    2  C           1     174.647 184.387 286.754  0.00  0.00     0.089 A 
HETATM    3  N           1     173.868 185.227 287.471  0.00  0.00    -0.360 N 
ATOM      4  HN          1     173.662 185.057 288.455  1.00  0.00     0.166 HD
HETATM    5  C           1     173.377 186.303 286.817  0.00  0.00     0.077 A 
HETATM    6  C           1     173.629 186.574 285.482  0.00  0.00     0.003 A 
HETATM    7  C           1     174.435 185.692 284.771  0.00  0.00     0.013 A 
ENDROOT
BRANCH   6   8
HETATM    8  C           1     173.050 187.788 284.822  0.00  0.00     0.307 C 
BRANCH   8   9
HETATM    9  N           1     172.094 187.384 283.828  0.00  0.00     0.087 N 
HETATM   10  H           1     171.909 186.385 283.920  0.00  0.00     0.316 HD
BRANCH   9  11
HETATM   11  C           1     172.669 187.647 282.536  0.00  0.00     0.270 C 
BRANCH  11  12
HETATM   12  C           1     172.707 186.359 281.724  0.00  0.00     0.032 C 
BRANCH  12  13
HETATM   13  C           1     172.285 186.649 280.290  0.00  0.00     0.032 C 
BRANCH  13  14
HETATM   14  C           1     173.178 185.875 279.331  0.00  0.00     0.271 C 
BRANCH  14  15
HETATM   15  N           1     172.757 186.122 277.977  0.00  0.00     0.080 N 
HETATM   16  C           1     173.808 185.675 277.104  0.00  0.00     0.309 C 
HETATM   17  C           1     171.600 185.306 277.724  0.00  0.00     0.309 C 
ENDBRANCH  14  15
ENDBRANCH  13  14
ENDBRANCH  12  13
ENDBRANCH  11  12
ENDBRANCH   9  11
ENDBRANCH   8   9
ENDBRANCH   6   8
BRANCH   5  18
HETATM   18  S           1     172.326 187.457 287.742  0.00  0.00    -0.107 SA
BRANCH  18  19
HETATM   19  C           1     171.530 186.150 288.717  0.00  0.00     0.122 C 
BRANCH  19  20
HETATM   20  C           1     171.672 186.457 290.175  0.00  0.00    -0.049 A 
HETATM   21  C           1     171.350 187.727 290.655  0.00  0.00     0.008 A 
HETATM   22  C           1     171.483 188.013 292.013  0.00  0.00     0.001 A 
HETATM   23  C           1     171.937 187.031 292.893  0.00  0.00     0.000 A 
HETATM   24  C           1     172.259 185.761 292.413  0.00  0.00     0.001 A 
HETATM   25  C           1     172.127 185.474 291.054  0.00  0.00     0.008 A 
ENDBRANCH  19  20
ENDBRANCH  18  19
ENDBRANCH   5  18
TORSDOF 10
ENDMDL
MODEL 5
REMARK VINA RESULT:      -5.9     12.458     15.812
REMARK  10 active torsions:
REMARK  status: ('A' for Active; 'I' for Inactive)
REMARK    1  A    between atoms: C_5  and  S_17 
REMARK    2  A    between atoms: C_6  and  C_8 
REMARK    3  A    between atoms: C_8  and  N_9 
REMARK    4  A    between atoms: N_9  and  C_10 
REMARK    5  A    between atoms: C_10  and  C_11 
REMARK    6  A    between atoms: C_11  and  C_12 
REMARK    7  A    between atoms: C_12  and  C_13 
REMARK    8  A    between atoms: C_13  and  N_14 
REMARK    9  A    between atoms: S_17  and  C_24 
REMARK   10  A    between atoms: C_18  and  C_24 
ROOT
HETATM    1  C           1     172.009 183.398 270.104  0.00  0.00     0.018 A 
HETATM    2  C           1     172.554 183.077 271.337  0.00  0.00     0.089 A 
HETATM    3  N           1     173.794 183.442 271.729  0.00  0.00    -0.360 N 
ATOM      4  HN          1     174.162 183.187 272.646  1.00  0.00     0.166 HD
HETATM    5  C           1     174.520 184.162 270.846  0.00  0.00     0.077 A 
HETATM    6  C           1     174.063 184.531 269.592  0.00  0.00     0.003 A 
HETATM    7  C           1     172.782 184.140 269.217  0.00  0.00     0.013 A 
ENDROOT
BRANCH   6   8
HETATM    8  C           1     174.925 185.330 268.663  0.00  0.00     0.307 C 
BRANCH   8   9
HETATM    9  N           1     174.613 186.726 268.801  0.00  0.00     0.087 N 
HETATM   10  H           1     173.778 186.833 269.376  0.00  0.00     0.316 HD
BRANCH   9  11
HETATM   11  C           1     174.360 187.250 267.487  0.00  0.00     0.270 C 
BRANCH  11  12
HETATM   12  C           1     174.122 188.751 267.574  0.00  0.00     0.032 C 
BRANCH  12  13
HETATM   13  C           1     175.010 189.346 268.659  0.00  0.00     0.032 C 
BRANCH  13  14
HETATM   14  C           1     174.244 190.427 269.408  0.00  0.00     0.271 C 
BRANCH  14  15
HETATM   15  N           1     174.880 190.676 270.674  0.00  0.00     0.080 N 
HETATM   16  C           1     175.672 189.522 271.001  0.00  0.00     0.309 C 
HETATM   17  C           1     175.775 191.788 270.500  0.00  0.00     0.309 C 
ENDBRANCH  14  15
ENDBRANCH  13  14
ENDBRANCH  12  13
ENDBRANCH  11  12
ENDBRANCH   9  11
ENDBRANCH   8   9
ENDBRANCH   6   8
BRANCH   5  18
HETATM   18  S           1     176.193 184.673 271.331  0.00  0.00    -0.107 SA
BRANCH  18  19
HETATM   19  C           1     175.607 185.994 272.431  0.00  0.00     0.122 C 
BRANCH  19  20
HETATM   20  C           1     176.207 185.815 273.790  0.00  0.00    -0.049 A 
HETATM   21  C           1     177.470 186.335 274.069  0.00  0.00     0.008 A 
HETATM   22  C           1     178.030 186.169 275.335  0.00  0.00     0.001 A 
HETATM   23  C           1     177.326 185.482 276.324  0.00  0.00     0.000 A 
HETATM   24  C           1     176.062 184.960 276.045  0.00  0.00     0.001 A 
HETATM   25  C           1     175.503 185.127 274.778  0.00  0.00     0.008 A 
ENDBRANCH  19  20
ENDBRANCH  18  19
ENDBRANCH   5  18
TORSDOF 10
ENDMDL
MODEL 6
REMARK VINA RESULT:      -5.8      9.722     14.944
REMARK  10 active torsions:
REMARK  status: ('A' for Active; 'I' for Inactive)
REMARK    1  A    between atoms: C_5  and  S_17 
REMARK    2  A    between atoms: C_6  and  C_8 
REMARK    3  A    between atoms: C_8  and  N_9 
REMARK    4  A    between atoms: N_9  and  C_10 
REMARK    5  A    between atoms: C_10  and  C_11 
REMARK    6  A    between atoms: C_11  and  C_12 
REMARK    7  A    between atoms: C_12  and  C_13 
REMARK    8  A    between atoms: C_13  and  N_14 
REMARK    9  A    between atoms: S_17  and  C_24 
REMARK   10  A    between atoms: C_18  and  C_24 
ROOT
HETATM    1  C           1     175.003 184.046 271.814  0.00  0.00     0.018 A 
HETATM    2  C           1     173.649 184.336 271.761  0.00  0.00     0.089 A 
HETATM    3  N           1     173.114 185.507 272.171  0.00  0.00    -0.360 N 
ATOM      4  HN          1     172.111 185.686 272.116  1.00  0.00     0.166 HD
HETATM    5  C           1     173.975 186.428 272.657  0.00  0.00     0.077 A 
HETATM    6  C           1     175.343 186.230 272.751  0.00  0.00     0.003 A 
HETATM    7  C           1     175.863 185.014 272.321  0.00  0.00     0.013 A 
ENDROOT
BRANCH   6   8
HETATM    8  C           1     176.238 187.297 273.302  0.00  0.00     0.307 C 
BRANCH   8   9
HETATM    9  N           1     177.506 186.722 273.660  0.00  0.00     0.087 N 
HETATM   10  H           1     177.481 185.716 273.496  0.00  0.00     0.316 HD
BRANCH   9  11
HETATM   11  C           1     177.721 186.975 275.059  0.00  0.00     0.270 C 
BRANCH  11  12
HETATM   12  C           1     177.696 185.658 275.823  0.00  0.00     0.032 C 
BRANCH  12  13
HETATM   13  C           1     176.295 185.410 276.366  0.00  0.00     0.032 C 
BRANCH  13  14
HETATM   14  C           1     175.744 186.698 276.962  0.00  0.00     0.271 C 
BRANCH  14  15
HETATM   15  N           1     174.308 186.691 276.876  0.00  0.00     0.080 N 
HETATM   16  C           1     173.917 185.497 276.178  0.00  0.00     0.309 C 
HETATM   17  C           1     173.792 186.605 278.215  0.00  0.00     0.309 C 
ENDBRANCH  14  15
ENDBRANCH  13  14
ENDBRANCH  12  13
ENDBRANCH  11  12
ENDBRANCH   9  11
ENDBRANCH   8   9
ENDBRANCH   6   8
BRANCH   5  18
HETATM   18  S           1     173.299 188.015 273.221  0.00  0.00    -0.107 SA
BRANCH  18  19
HETATM   19  C           1     172.980 188.621 271.540  0.00  0.00     0.122 C 
BRANCH  19  20
HETATM   20  C           1     173.832 189.822 271.272  0.00  0.00    -0.049 A 
HETATM   21  C           1     173.325 191.101 271.501  0.00  0.00     0.008 A 
HETATM   22  C           1     174.119 192.221 271.251  0.00  0.00     0.001 A 
HETATM   23  C           1     175.419 192.062 270.771  0.00  0.00     0.000 A 
HETATM   24  C           1     175.925 190.783 270.541  0.00  0.00     0.001 A 
HETATM   25  C           1     175.131 189.663 270.791  0.00  0.00     0.008 A 
ENDBRANCH  19  20
ENDBRANCH  18  19
ENDBRANCH   5  18
TORSDOF 10
ENDMDL
MODEL 7
REMARK VINA RESULT:      -5.8      4.708      8.297
REMARK  10 active torsions:
REMARK  status: ('A' for Active; 'I' for Inactive)
REMARK    1  A    between atoms: C_5  and  S_17 
REMARK    2  A    between atoms: C_6  and  C_8 
REMARK    3  A    between atoms: C_8  and  N_9 
REMARK    4  A    between atoms: N_9  and  C_10 
REMARK    5  A    between atoms: C_10  and  C_11 
REMARK    6  A    between atoms: C_11  and  C_12 
REMARK    7  A    between atoms: C_12  and  C_13 
REMARK    8  A    between atoms: C_13  and  N_14 
REMARK    9  A    between atoms: S_17  and  C_24 
REMARK   10  A    between atoms: C_18  and  C_24 
ROOT
HETATM    1  C           1     171.738 186.027 277.420  0.00  0.00     0.018 A 
HETATM    2  C           1     171.244 185.983 278.714  0.00  0.00     0.089 A 
HETATM    3  N           1     171.999 186.187 279.815  0.00  0.00    -0.360 N 
ATOM      4  HN          1     171.600 186.147 280.753  1.00  0.00     0.166 HD
HETATM    5  C           1     173.309 186.447 279.610  0.00  0.00     0.077 A 
HETATM    6  C           1     173.895 186.512 278.356  0.00  0.00     0.003 A 
HETATM    7  C           1     173.091 186.297 277.242  0.00  0.00     0.013 A 
ENDROOT
BRANCH   6   8
HETATM    8  C           1     175.356 186.805 278.204  0.00  0.00     0.307 C 
BRANCH   8   9
HETATM    9  N           1     175.778 186.465 276.873  0.00  0.00     0.087 N 
HETATM   10  H           1     175.403 185.550 276.621  0.00  0.00     0.316 HD
BRANCH   9  11
HETATM   11  C           1     177.214 186.412 276.870  0.00  0.00     0.270 C 
BRANCH  11  12
HETATM   12  C           1     177.718 186.356 275.434  0.00  0.00     0.032 C 
BRANCH  12  13
HETATM   13  C           1     176.593 186.742 274.483  0.00  0.00     0.032 C 
BRANCH  13  14
HETATM   14  C           1     176.762 185.998 273.166  0.00  0.00     0.271 C 
BRANCH  14  15
HETATM   15  N           1     175.471 185.764 272.577  0.00  0.00     0.080 N 
HETATM   16  C           1     175.649 184.852 271.480  0.00  0.00     0.309 C 
HETATM   17  C           1     174.654 185.109 273.562  0.00  0.00     0.309 C 
ENDBRANCH  14  15
ENDBRANCH  13  14
ENDBRANCH  12  13
ENDBRANCH  11  12
ENDBRANCH   9  11
ENDBRANCH   8   9
ENDBRANCH   6   8
BRANCH   5  18
HETATM   18  S           1     174.362 186.728 281.062  0.00  0.00    -0.107 SA
BRANCH  18  19
HETATM   19  C           1     174.116 185.054 281.721  0.00  0.00     0.122 C 
BRANCH  19  20
HETATM   20  C           1     173.937 185.123 283.204  0.00  0.00    -0.049 A 
HETATM   21  C           1     175.047 185.057 284.046  0.00  0.00     0.008 A 
HETATM   22  C           1     174.880 185.121 285.429  0.00  0.00     0.001 A 
HETATM   23  C           1     173.602 185.250 285.972  0.00  0.00     0.000 A 
HETATM   24  C           1     172.491 185.316 285.131  0.00  0.00     0.001 A 
HETATM   25  C           1     172.658 185.252 283.748  0.00  0.00     0.008 A 
ENDBRANCH  19  20
ENDBRANCH  18  19
ENDBRANCH   5  18
TORSDOF 10
ENDMDL
MODEL 8
REMARK VINA RESULT:      -5.8     12.136     15.342
REMARK  10 active torsions:
REMARK  status: ('A' for Active; 'I' for Inactive)
REMARK    1  A    between atoms: C_5  and  S_17 
REMARK    2  A    between atoms: C_6  and  C_8 
REMARK    3  A    between atoms: C_8  and  N_9 
REMARK    4  A    between atoms: N_9  and  C_10 
REMARK    5  A    between atoms: C_10  and  C_11 
REMARK    6  A    between atoms: C_11  and  C_12 
REMARK    7  A    between atoms: C_12  and  C_13 
REMARK    8  A    between atoms: C_13  and  N_14 
REMARK    9  A    between atoms: S_17  and  C_24 
REMARK   10  A    between atoms: C_18  and  C_24 
ROOT
HETATM    1  C           1     174.837 187.157 267.921  0.00  0.00     0.018 A 
HETATM    2  C           1     174.588 185.993 268.632  0.00  0.00     0.089 A 
HETATM    3  N           1     174.371 185.957 269.964  0.00  0.00    -0.360 N 
ATOM      4  HN          1     174.191 185.081 270.454  1.00  0.00     0.166 HD
HETATM    5  C           1     174.405 187.142 270.614  0.00  0.00     0.077 A 
HETATM    6  C           1     174.645 188.356 269.992  0.00  0.00     0.003 A 
HETATM    7  C           1     174.866 188.360 268.619  0.00  0.00     0.013 A 
ENDROOT
BRANCH   6   8
HETATM    8  C           1     174.668 189.631 270.778  0.00  0.00     0.307 C 
BRANCH   8   9
HETATM    9  N           1     176.025 190.089 270.909  0.00  0.00     0.087 N 
HETATM   10  H           1     176.363 189.885 271.849  0.00  0.00     0.316 HD
BRANCH   9  11
HETATM   11  C           1     176.028 191.511 270.697  0.00  0.00     0.270 C 
BRANCH  11  12
HETATM   12  C           1     174.614 192.052 270.854  0.00  0.00     0.032 C 
BRANCH  12  13
HETATM   13  C           1     174.558 192.993 272.051  0.00  0.00     0.032 C 
BRANCH  13  14
HETATM   14  C           1     173.397 192.600 272.953  0.00  0.00     0.271 C 
BRANCH  14  15
HETATM   15  N           1     173.907 192.109 274.205  0.00  0.00     0.080 N 
HETATM   16  C           1     173.219 192.802 275.260  0.00  0.00     0.309 C 
HETATM   17  C           1     173.562 190.716 274.300  0.00  0.00     0.309 C 
ENDBRANCH  14  15
ENDBRANCH  13  14
ENDBRANCH  12  13
ENDBRANCH  11  12
ENDBRANCH   9  11
ENDBRANCH   8   9
ENDBRANCH   6   8
BRANCH   5  18
HETATM   18  S           1     174.119 187.140 272.407  0.00  0.00    -0.107 SA
BRANCH  18  19
HETATM   19  C           1     174.947 185.546 272.665  0.00  0.00     0.122 C 
BRANCH  19  20
HETATM   20  C           1     175.877 185.649 273.832  0.00  0.00    -0.049 A 
HETATM   21  C           1     177.138 186.224 273.672  0.00  0.00     0.008 A 
HETATM   22  C           1     178.005 186.320 274.759  0.00  0.00     0.001 A 
HETATM   23  C           1     177.612 185.841 276.009  0.00  0.00     0.000 A 
HETATM   24  C           1     176.352 185.265 276.171  0.00  0.00     0.001 A 
HETATM   25  C           1     175.485 185.169 275.082  0.00  0.00     0.008 A 
ENDBRANCH  19  20
ENDBRANCH  18  19
ENDBRANCH   5  18
TORSDOF 10
ENDMDL
MODEL 9
REMARK VINA RESULT:      -5.8      7.468     14.041
REMARK  10 active torsions:
REMARK  status: ('A' for Active; 'I' for Inactive)
REMARK    1  A    between atoms: C_5  and  S_17 
REMARK    2  A    between atoms: C_6  and  C_8 
REMARK    3  A    between atoms: C_8  and  N_9 
REMARK    4  A    between atoms: N_9  and  C_10 
REMARK    5  A    between atoms: C_10  and  C_11 
REMARK    6  A    between atoms: C_11  and  C_12 
REMARK    7  A    between atoms: C_12  and  C_13 
REMARK    8  A    between atoms: C_13  and  N_14 
REMARK    9  A    between atoms: S_17  and  C_24 
REMARK   10  A    between atoms: C_18  and  C_24 
ROOT
HETATM    1  C           1     177.825 185.712 275.949  0.00  0.00     0.018 A 
HETATM    2  C           1     178.017 186.528 274.846  0.00  0.00     0.089 A 
HETATM    3  N           1     177.013 186.995 274.072  0.00  0.00    -0.360 N 
ATOM      4  HN          1     177.191 187.595 273.267  1.00  0.00     0.166 HD
HETATM    5  C           1     175.760 186.627 274.421  0.00  0.00     0.077 A 
HETATM    6  C           1     175.468 185.816 275.505  0.00  0.00     0.003 A 
HETATM    7  C           1     176.524 185.351 276.282  0.00  0.00     0.013 A 
ENDROOT
BRANCH   6   8
HETATM    8  C           1     174.054 185.448 275.831  0.00  0.00     0.307 C 
BRANCH   8   9
HETATM    9  N           1     173.787 185.743 277.212  0.00  0.00     0.087 N 
HETATM   10  H           1     174.430 185.216 277.803  0.00  0.00     0.316 HD
BRANCH   9  11
HETATM   11  C           1     172.437 185.339 277.493  0.00  0.00     0.270 C 
BRANCH  11  12
HETATM   12  C           1     172.035 185.833 278.876  0.00  0.00     0.032 C 
BRANCH  12  13
HETATM   13  C           1     173.268 186.331 279.618  0.00  0.00     0.032 C 
BRANCH  13  14
HETATM   14  C           1     173.082 186.119 281.114  0.00  0.00     0.271 C 
BRANCH  14  15
HETATM   15  N           1     174.229 186.628 281.817  0.00  0.00     0.080 N 
HETATM   16  C           1     174.857 185.521 282.488  0.00  0.00     0.309 C 
HETATM   17  C           1     175.155 187.128 280.837  0.00  0.00     0.309 C 
ENDBRANCH  14  15
ENDBRANCH  13  14
ENDBRANCH  12  13
ENDBRANCH  11  12
ENDBRANCH   9  11
ENDBRANCH   8   9
ENDBRANCH   6   8
BRANCH   5  18
HETATM   18  S           1     174.380 187.231 273.408  0.00  0.00    -0.107 SA
BRANCH  18  19
HETATM   19  C           1     175.122 186.683 271.844  0.00  0.00     0.122 C 
BRANCH  19  20
HETATM   20  C           1     175.145 187.824 270.876  0.00  0.00    -0.049 A 
HETATM   21  C           1     175.534 189.094 271.302  0.00  0.00     0.008 A 
HETATM   22  C           1     175.556 190.157 270.400  0.00  0.00     0.001 A 
HETATM   23  C           1     175.188 189.951 269.071  0.00  0.00     0.000 A 
HETATM   24  C           1     174.797 188.681 268.644  0.00  0.00     0.001 A 
HETATM   25  C           1     174.776 187.618 269.547  0.00  0.00     0.008 A 
ENDBRANCH  19  20
ENDBRANCH  18  19
ENDBRANCH   5  18
TORSDOF 10
ENDMDL
