MODEL 1
REMARK VINA RESULT:      -8.6      0.000      0.000
REMARK  9 active torsions:
REMARK  status: ('A' for Active; 'I' for Inactive)
REMARK    1  A    between atoms: C_4  and  S_22 
REMARK    2  A    between atoms: C_5  and  C_7 
REMARK    3  A    between atoms: C_7  and  N_8 
REMARK    4  A    between atoms: N_8  and  C_9 
REMARK    5  A    between atoms: C_9  and  C_10 
REMARK    6  A    between atoms: C_13  and  C_21 
REMARK    7  A    between atoms: N_16  and  C_21 
REMARK    8  A    between atoms: S_22  and  C_29 
REMARK    9  A    between atoms: C_23  and  C_29 
ROOT
HETATM    1  C           1     175.298 186.934 281.080  0.00  0.00     0.311 C 
ENDROOT
BRANCH   1   2
HETATM    2  C           1     174.101 187.834 281.074  0.00  0.00     0.005 A 
HETATM    3  C           1     172.965 187.501 280.354  0.00  0.00     0.101 A 
HETATM    4  N           1     171.854 188.268 280.307  0.00  0.00    -0.254 NA
HETATM    5  C           1     171.884 189.420 281.012  0.00  0.00     0.118 A 
HETATM    6  C           1     172.972 189.838 281.760  0.00  0.00     0.020 A 
HETATM    7  C           1     174.101 189.027 281.789  0.00  0.00     0.013 A 
BRANCH   3   8
HETATM    8  S           1     172.968 185.944 279.421  0.00  0.00    -0.105 SA
BRANCH   8   9
HETATM    9  C           1     173.004 186.765 277.803  0.00  0.00     0.119 C 
BRANCH   9  10
HETATM   10  C           1     174.205 186.308 277.037  0.00  0.00    -0.049 A 
HETATM   11  C           1     175.473 186.775 277.385  0.00  0.00     0.008 A 
HETATM   12  C           1     176.592 186.349 276.670  0.00  0.00     0.001 A 
HETATM   13  C           1     176.446 185.456 275.609  0.00  0.00     0.000 A 
HETATM   14  C           1     175.178 184.990 275.261  0.00  0.00     0.001 A 
HETATM   15  C           1     174.058 185.415 275.976  0.00  0.00     0.008 A 
ENDBRANCH   9  10
ENDBRANCH   8   9
ENDBRANCH   3   8
ENDBRANCH   1   2
BRANCH   1  16
HETATM   16  N           1     175.713 186.694 282.436  0.00  0.00     0.091 N 
HETATM   17  H           1     176.731 186.719 282.488  0.00  0.00     0.316 HD
BRANCH  16  18
HETATM   18  C           1     175.245 185.388 282.812  0.00  0.00     0.308 C 
BRANCH  18  19
HETATM   19  C           1     174.629 185.452 284.176  0.00  0.00    -0.030 A 
HETATM   20  C           1     174.965 184.499 285.139  0.00  0.00     0.009 A 
HETATM   21  C           1     174.391 184.560 286.409  0.00  0.00     0.009 A 
HETATM   22  C           1     173.482 185.573 286.716  0.00  0.00    -0.030 A 
HETATM   23  C           1     173.148 186.525 285.754  0.00  0.00     0.009 A 
HETATM   24  C           1     173.721 186.465 284.484  0.00  0.00     0.009 A 
BRANCH  22  25
HETATM   25  C           1     172.867 185.638 288.079  0.00  0.00     0.311 C 
BRANCH  25  26
HETATM   26  N           1     173.554 186.621 288.870  0.00  0.00     0.092 N 
HETATM   27  C           1     172.600 187.243 289.784  0.00  0.00     0.273 C 
HETATM   28  C           1     172.369 186.180 290.844  0.00  0.00     0.032 C 
HETATM   29  C           1     173.620 185.311 290.814  0.00  0.00     0.032 C 
HETATM   30  C           1     174.498 185.917 289.733  0.00  0.00     0.273 C 
ENDBRANCH  25  26
ENDBRANCH  22  25
ENDBRANCH  18  19
ENDBRANCH  16  18
ENDBRANCH   1  16
TORSDOF 9
ENDMDL
MODEL 2
REMARK VINA RESULT:      -8.2      1.732      2.584
REMARK  9 active torsions:
REMARK  status: ('A' for Active; 'I' for Inactive)
REMARK    1  A    between atoms: C_4  and  S_22 
REMARK    2  A    between atoms: C_5  and  C_7 
REMARK    3  A    between atoms: C_7  and  N_8 
REMARK    4  A    between atoms: N_8  and  C_9 
REMARK    5  A    between atoms: C_9  and  C_10 
REMARK    6  A    between atoms: C_13  and  C_21 
REMARK    7  A    between atoms: N_16  and  C_21 
REMARK    8  A    between atoms: S_22  and  C_29 
REMARK    9  A    between atoms: C_23  and  C_29 
ROOT
HETATM    1  C           1     173.663 186.469 280.271  0.00  0.00     0.311 C 
ENDROOT
BRANCH   1   2
HETATM    2  C           1     172.648 186.685 279.193  0.00  0.00     0.005 A 
HETATM    3  C           1     173.036 186.842 277.872  0.00  0.00     0.101 A 
HETATM    4  N           1     172.172 187.041 276.853  0.00  0.00    -0.254 NA
HETATM    5  C           1     170.860 187.085 277.172  0.00  0.00     0.118 A 
HETATM    6  C           1     170.375 186.940 278.461  0.00  0.00     0.020 A 
HETATM    7  C           1     171.290 186.736 279.489  0.00  0.00     0.013 A 
BRANCH   3   8
HETATM    8  S           1     174.809 186.776 277.488  0.00  0.00    -0.105 SA
BRANCH   8   9
HETATM    9  C           1     174.665 185.275 276.479  0.00  0.00     0.119 C 
BRANCH   9  10
HETATM   10  C           1     175.345 185.490 275.163  0.00  0.00    -0.049 A 
HETATM   11  C           1     174.708 185.114 273.980  0.00  0.00     0.008 A 
HETATM   12  C           1     175.342 185.315 272.754  0.00  0.00     0.001 A 
HETATM   13  C           1     176.611 185.890 272.709  0.00  0.00     0.000 A 
HETATM   14  C           1     177.248 186.264 273.893  0.00  0.00     0.001 A 
HETATM   15  C           1     176.614 186.065 275.119  0.00  0.00     0.008 A 
ENDBRANCH   9  10
ENDBRANCH   8   9
ENDBRANCH   3   8
ENDBRANCH   1   2
BRANCH   1  16
HETATM   16  N           1     173.088 185.669 281.319  0.00  0.00     0.091 N 
HETATM   17  H           1     172.570 186.271 281.960  0.00  0.00     0.316 HD
BRANCH  16  18
HETATM   18  C           1     174.166 185.031 282.026  0.00  0.00     0.308 C 
BRANCH  18  19
HETATM   19  C           1     173.899 185.085 283.498  0.00  0.00    -0.030 A 
HETATM   20  C           1     174.898 184.724 284.402  0.00  0.00     0.009 A 
HETATM   21  C           1     174.648 184.774 285.774  0.00  0.00     0.009 A 
HETATM   22  C           1     173.399 185.184 286.240  0.00  0.00    -0.030 A 
HETATM   23  C           1     172.401 185.545 285.336  0.00  0.00     0.009 A 
HETATM   24  C           1     172.651 185.496 283.965  0.00  0.00     0.009 A 
BRANCH  22  25
HETATM   25  C           1     173.131 185.237 287.712  0.00  0.00     0.311 C 
BRANCH  25  26
HETATM   26  N           1     173.826 186.357 288.286  0.00  0.00     0.092 N 
HETATM   27  C           1     172.856 187.226 288.947  0.00  0.00     0.273 C 
HETATM   28  C           1     172.499 186.471 290.215  0.00  0.00     0.032 C 
HETATM   29  C           1     173.696 185.570 290.492  0.00  0.00     0.032 C 
HETATM   30  C           1     174.673 185.851 289.363  0.00  0.00     0.273 C 
ENDBRANCH  25  26
ENDBRANCH  22  25
ENDBRANCH  18  19
ENDBRANCH  16  18
ENDBRANCH   1  16
TORSDOF 9
ENDMDL
MODEL 3
REMARK VINA RESULT:      -8.1      1.328      1.898
REMARK  9 active torsions:
REMARK  status: ('A' for Active; 'I' for Inactive)
REMARK    1  A    between atoms: C_4  and  S_22 
REMARK    2  A    between atoms: C_5  and  C_7 
REMARK    3  A    between atoms: C_7  and  N_8 
REMARK    4  A    between atoms: N_8  and  C_9 
REMARK    5  A    between atoms: C_9  and  C_10 
REMARK    6  A    between atoms: C_13  and  C_21 
REMARK    7  A    between atoms: N_16  and  C_21 
REMARK    8  A    between atoms: S_22  and  C_29 
REMARK    9  A    between atoms: C_23  and  C_29 
ROOT
HETATM    1  C           1     173.632 186.101 280.604  0.00  0.00     0.311 C 
ENDROOT
BRANCH   1   2
HETATM    2  C           1     172.637 187.174 280.291  0.00  0.00     0.005 A 
HETATM    3  C           1     171.795 187.067 279.195  0.00  0.00     0.101 A 
HETATM    4  N           1     170.877 187.998 278.859  0.00  0.00    -0.254 NA
HETATM    5  C           1     170.799 189.086 279.656  0.00  0.00     0.118 A 
HETATM    6  C           1     171.596 189.284 280.772  0.00  0.00     0.020 A 
HETATM    7  C           1     172.532 188.306 281.093  0.00  0.00     0.013 A 
BRANCH   3   8
HETATM    8  S           1     171.935 185.589 278.151  0.00  0.00    -0.105 SA
BRANCH   8   9
HETATM    9  C           1     172.532 186.509 276.706  0.00  0.00     0.119 C 
BRANCH   9  10
HETATM   10  C           1     173.965 186.162 276.449  0.00  0.00    -0.049 A 
HETATM   11  C           1     174.294 185.262 275.435  0.00  0.00     0.008 A 
HETATM   12  C           1     175.629 184.939 275.196  0.00  0.00     0.001 A 
HETATM   13  C           1     176.637 185.514 275.970  0.00  0.00     0.000 A 
HETATM   14  C           1     176.308 186.413 276.985  0.00  0.00     0.001 A 
HETATM   15  C           1     174.972 186.737 277.223  0.00  0.00     0.008 A 
ENDBRANCH   9  10
ENDBRANCH   8   9
ENDBRANCH   3   8
ENDBRANCH   1   2
BRANCH   1  16
HETATM   16  N           1     173.144 185.293 281.689  0.00  0.00     0.091 N 
HETATM   17  H           1     172.521 185.851 282.274  0.00  0.00     0.316 HD
BRANCH  16  18
HETATM   18  C           1     174.279 184.870 282.465  0.00  0.00     0.308 C 
BRANCH  18  19
HETATM   19  C           1     173.954 184.975 283.922  0.00  0.00    -0.030 A 
HETATM   20  C           1     172.665 185.324 284.327  0.00  0.00     0.009 A 
HETATM   21  C           1     172.363 185.422 285.686  0.00  0.00     0.009 A 
HETATM   22  C           1     173.350 185.170 286.639  0.00  0.00    -0.030 A 
HETATM   23  C           1     174.637 184.820 286.234  0.00  0.00     0.009 A 
HETATM   24  C           1     174.939 184.723 284.877  0.00  0.00     0.009 A 
BRANCH  22  25
HETATM   25  C           1     173.025 185.275 288.097  0.00  0.00     0.311 C 
BRANCH  25  26
HETATM   26  N           1     171.921 186.178 288.279  0.00  0.00     0.092 N 
HETATM   27  C           1     171.020 185.625 289.286  0.00  0.00     0.273 C 
HETATM   28  C           1     171.757 185.856 290.595  0.00  0.00     0.032 C 
HETATM   29  C           1     172.690 187.030 290.325  0.00  0.00     0.032 C 
HETATM   30  C           1     172.445 187.405 288.874  0.00  0.00     0.273 C 
ENDBRANCH  25  26
ENDBRANCH  22  25
ENDBRANCH  18  19
ENDBRANCH  16  18
ENDBRANCH   1  16
TORSDOF 9
ENDMDL
MODEL 4
REMARK VINA RESULT:      -8.1      2.252     10.764
REMARK  9 active torsions:
REMARK  status: ('A' for Active; 'I' for Inactive)
REMARK    1  A    between atoms: C_4  and  S_22 
REMARK    2  A    between atoms: C_5  and  C_7 
REMARK    3  A    between atoms: C_7  and  N_8 
REMARK    4  A    between atoms: N_8  and  C_9 
REMARK    5  A    between atoms: C_9  and  C_10 
REMARK    6  A    between atoms: C_13  and  C_21 
REMARK    7  A    between atoms: N_16  and  C_21 
REMARK    8  A    between atoms: S_22  and  C_29 
REMARK    9  A    between atoms: C_23  and  C_29 
ROOT
HETATM    1  C           1     172.620 186.942 283.916  0.00  0.00     0.311 C 
ENDROOT
BRANCH   1   2
HETATM    2  C           1     173.399 185.976 284.753  0.00  0.00     0.005 A 
HETATM    3  C           1     173.127 185.826 286.104  0.00  0.00     0.101 A 
HETATM    4  N           1     173.792 184.974 286.913  0.00  0.00    -0.254 NA
HETATM    5  C           1     174.773 184.240 286.345  0.00  0.00     0.118 A 
HETATM    6  C           1     175.118 184.319 285.006  0.00  0.00     0.020 A 
HETATM    7  C           1     174.415 185.207 284.197  0.00  0.00     0.013 A 
BRANCH   3   8
HETATM    8  S           1     171.801 186.833 286.827  0.00  0.00    -0.105 SA
BRANCH   8   9
HETATM    9  C           1     172.914 187.720 287.953  0.00  0.00     0.119 C 
BRANCH   9  10
HETATM   10  C           1     172.523 187.437 289.369  0.00  0.00    -0.049 A 
HETATM   11  C           1     171.525 188.196 289.982  0.00  0.00     0.008 A 
HETATM   12  C           1     171.160 187.931 291.302  0.00  0.00     0.001 A 
HETATM   13  C           1     171.792 186.909 292.010  0.00  0.00     0.000 A 
HETATM   14  C           1     172.790 186.151 291.397  0.00  0.00     0.001 A 
HETATM   15  C           1     173.154 186.415 290.076  0.00  0.00     0.008 A 
ENDBRANCH   9  10
ENDBRANCH   8   9
ENDBRANCH   3   8
ENDBRANCH   1   2
BRANCH   1  16
HETATM   16  N           1     173.249 187.080 282.630  0.00  0.00     0.091 N 
HETATM   17  H           1     173.267 188.065 282.365  0.00  0.00     0.316 HD
BRANCH  16  18
HETATM   18  C           1     172.463 186.342 281.678  0.00  0.00     0.308 C 
BRANCH  18  19
HETATM   19  C           1     173.118 186.408 280.333  0.00  0.00    -0.030 A 
HETATM   20  C           1     172.503 185.820 279.227  0.00  0.00     0.009 A 
HETATM   21  C           1     173.114 185.882 277.975  0.00  0.00     0.009 A 
HETATM   22  C           1     174.340 186.533 277.828  0.00  0.00    -0.030 A 
HETATM   23  C           1     174.953 187.121 278.933  0.00  0.00     0.009 A 
HETATM   24  C           1     174.343 187.059 280.185  0.00  0.00     0.009 A 
BRANCH  22  25
HETATM   25  C           1     174.994 186.599 276.483  0.00  0.00     0.311 C 
BRANCH  25  26
HETATM   26  N           1     175.490 185.298 276.126  0.00  0.00     0.092 N 
HETATM   27  C           1     175.184 185.046 274.720  0.00  0.00     0.273 C 
HETATM   28  C           1     176.182 185.913 273.972  0.00  0.00     0.032 C 
HETATM   29  C           1     177.345 186.105 274.939  0.00  0.00     0.032 C 
HETATM   30  C           1     176.948 185.344 276.192  0.00  0.00     0.273 C 
ENDBRANCH  25  26
ENDBRANCH  22  25
ENDBRANCH  18  19
ENDBRANCH  16  18
ENDBRANCH   1  16
TORSDOF 9
ENDMDL
MODEL 5
REMARK VINA RESULT:      -8.1      2.209     10.590
REMARK  9 active torsions:
REMARK  status: ('A' for Active; 'I' for Inactive)
REMARK    1  A    between atoms: C_4  and  S_22 
REMARK    2  A    between atoms: C_5  and  C_7 
REMARK    3  A    between atoms: C_7  and  N_8 
REMARK    4  A    between atoms: N_8  and  C_9 
REMARK    5  A    between atoms: C_9  and  C_10 
REMARK    6  A    between atoms: C_13  and  C_21 
REMARK    7  A    between atoms: N_16  and  C_21 
REMARK    8  A    between atoms: S_22  and  C_29 
REMARK    9  A    between atoms: C_23  and  C_29 
ROOT
HETATM    1  C           1     172.812 187.814 284.631  0.00  0.00     0.311 C 
ENDROOT
BRANCH   1   2
HETATM    2  C           1     173.574 186.574 284.980  0.00  0.00     0.005 A 
HETATM    3  C           1     173.745 186.192 286.301  0.00  0.00     0.101 A 
HETATM    4  N           1     174.420 185.086 286.682  0.00  0.00    -0.254 NA
HETATM    5  C           1     174.949 184.330 285.695  0.00  0.00     0.118 A 
HETATM    6  C           1     174.832 184.629 284.348  0.00  0.00     0.020 A 
HETATM    7  C           1     174.130 185.775 283.987  0.00  0.00     0.013 A 
BRANCH   3   8
HETATM    8  S           1     173.018 187.237 287.595  0.00  0.00    -0.105 SA
BRANCH   8   9
HETATM    9  C           1     173.386 186.064 288.929  0.00  0.00     0.119 C 
BRANCH   9  10
HETATM   10  C           1     172.716 186.513 290.189  0.00  0.00    -0.049 A 
HETATM   11  C           1     172.032 187.729 290.220  0.00  0.00     0.008 A 
HETATM   12  C           1     171.407 188.146 291.395  0.00  0.00     0.001 A 
HETATM   13  C           1     171.465 187.350 292.538  0.00  0.00     0.000 A 
HETATM   14  C           1     172.149 186.135 292.507  0.00  0.00     0.001 A 
HETATM   15  C           1     172.773 185.716 291.332  0.00  0.00     0.008 A 
ENDBRANCH   9  10
ENDBRANCH   8   9
ENDBRANCH   3   8
ENDBRANCH   1   2
BRANCH   1  16
HETATM   16  N           1     173.592 188.621 283.732  0.00  0.00     0.091 N 
HETATM   17  H           1     173.941 189.442 284.229  0.00  0.00     0.316 HD
BRANCH  16  18
HETATM   18  C           1     172.731 189.040 282.660  0.00  0.00     0.308 C 
BRANCH  18  19
HETATM   19  C           1     173.056 188.258 281.425  0.00  0.00    -0.030 A 
HETATM   20  C           1     174.379 187.920 281.141  0.00  0.00     0.009 A 
HETATM   21  C           1     174.681 187.191 279.990  0.00  0.00     0.009 A 
HETATM   22  C           1     173.659 186.801 279.124  0.00  0.00    -0.030 A 
HETATM   23  C           1     172.337 187.139 279.408  0.00  0.00     0.009 A 
HETATM   24  C           1     172.035 187.867 280.559  0.00  0.00     0.009 A 
BRANCH  22  25
HETATM   25  C           1     173.984 186.020 277.889  0.00  0.00     0.311 C 
BRANCH  25  26
HETATM   26  N           1     174.636 186.876 276.936  0.00  0.00     0.092 N 
HETATM   27  C           1     176.004 186.405 276.736  0.00  0.00     0.273 C 
HETATM   28  C           1     175.836 185.159 275.885  0.00  0.00     0.032 C 
HETATM   29  C           1     174.506 185.346 275.164  0.00  0.00     0.032 C 
HETATM   30  C           1     173.979 186.686 275.645  0.00  0.00     0.273 C 
ENDBRANCH  25  26
ENDBRANCH  22  25
ENDBRANCH  18  19
ENDBRANCH  16  18
ENDBRANCH   1  16
TORSDOF 9
ENDMDL
MODEL 6
REMARK VINA RESULT:      -7.6      2.903     10.211
REMARK  9 active torsions:
REMARK  status: ('A' for Active; 'I' for Inactive)
REMARK    1  A    between atoms: C_4  and  S_22 
REMARK    2  A    between atoms: C_5  and  C_7 
REMARK    3  A    between atoms: C_7  and  N_8 
REMARK    4  A    between atoms: N_8  and  C_9 
REMARK    5  A    between atoms: C_9  and  C_10 
REMARK    6  A    between atoms: C_13  and  C_21 
REMARK    7  A    between atoms: N_16  and  C_21 
REMARK    8  A    between atoms: S_22  and  C_29 
REMARK    9  A    between atoms: C_23  and  C_29 
ROOT
HETATM    1  C           1     172.091 185.044 287.181  0.00  0.00     0.311 C 
ENDROOT
BRANCH   1   2
HETATM    2  C           1     170.690 185.386 287.584  0.00  0.00     0.005 A 
HETATM    3  C           1     170.368 186.661 288.021  0.00  0.00     0.101 A 
HETATM    4  N           1     169.126 187.034 288.398  0.00  0.00    -0.254 NA
HETATM    5  C           1     168.165 186.087 288.337  0.00  0.00     0.118 A 
HETATM    6  C           1     168.389 184.787 287.915  0.00  0.00     0.020 A 
HETATM    7  C           1     169.679 184.433 287.532  0.00  0.00     0.013 A 
BRANCH   3   8
HETATM    8  S           1     171.690 187.903 288.088  0.00  0.00    -0.105 SA
BRANCH   8   9
HETATM    9  C           1     171.650 188.034 289.897  0.00  0.00     0.119 C 
BRANCH   9  10
HETATM   10  C           1     172.331 186.845 290.500  0.00  0.00    -0.049 A 
HETATM   11  C           1     173.551 186.406 289.986  0.00  0.00     0.008 A 
HETATM   12  C           1     174.185 185.298 290.548  0.00  0.00     0.001 A 
HETATM   13  C           1     173.601 184.629 291.623  0.00  0.00     0.000 A 
HETATM   14  C           1     172.380 185.068 292.136  0.00  0.00     0.001 A 
HETATM   15  C           1     171.746 186.177 291.575  0.00  0.00     0.008 A 
ENDBRANCH   9  10
ENDBRANCH   8   9
ENDBRANCH   3   8
ENDBRANCH   1   2
BRANCH   1  16
HETATM   16  N           1     172.169 184.951 285.748  0.00  0.00     0.091 N 
HETATM   17  H           1     172.311 183.977 285.478  0.00  0.00     0.316 HD
BRANCH  16  18
HETATM   18  C           1     173.295 185.735 285.319  0.00  0.00     0.308 C 
BRANCH  18  19
HETATM   19  C           1     173.197 185.986 283.846  0.00  0.00    -0.030 A 
HETATM   20  C           1     173.703 185.049 282.944  0.00  0.00     0.009 A 
HETATM   21  C           1     173.611 185.283 281.571  0.00  0.00     0.009 A 
HETATM   22  C           1     173.014 186.453 281.102  0.00  0.00    -0.030 A 
HETATM   23  C           1     172.508 187.388 282.003  0.00  0.00     0.009 A 
HETATM   24  C           1     172.600 187.155 283.375  0.00  0.00     0.009 A 
BRANCH  22  25
HETATM   25  C           1     172.916 186.703 279.629  0.00  0.00     0.311 C 
BRANCH  25  26
HETATM   26  N           1     171.741 186.058 279.110  0.00  0.00     0.092 N 
HETATM   27  C           1     170.850 187.075 278.556  0.00  0.00     0.273 C 
HETATM   28  C           1     171.520 187.471 277.252  0.00  0.00     0.032 C 
HETATM   29  C           1     172.370 186.268 276.860  0.00  0.00     0.032 C 
HETATM   30  C           1     172.147 185.249 277.964  0.00  0.00     0.273 C 
ENDBRANCH  25  26
ENDBRANCH  22  25
ENDBRANCH  18  19
ENDBRANCH  16  18
ENDBRANCH   1  16
TORSDOF 9
ENDMDL
MODEL 7
REMARK VINA RESULT:      -7.5      2.528      5.102
REMARK  9 active torsions:
REMARK  status: ('A' for Active; 'I' for Inactive)
REMARK    1  A    between atoms: C_4  and  S_22 
REMARK    2  A    between atoms: C_5  and  C_7 
REMARK    3  A    between atoms: C_7  and  N_8 
REMARK    4  A    between atoms: N_8  and  C_9 
REMARK    5  A    between atoms: C_9  and  C_10 
REMARK    6  A    between atoms: C_13  and  C_21 
REMARK    7  A    between atoms: N_16  and  C_21 
REMARK    8  A    between atoms: S_22  and  C_29 
REMARK    9  A    between atoms: C_23  and  C_29 
ROOT
HETATM    1  C           1     173.956 186.202 281.235  0.00  0.00     0.311 C 
ENDROOT
BRANCH   1   2
HETATM    2  C           1     172.823 186.754 280.427  0.00  0.00     0.005 A 
HETATM    3  C           1     172.408 188.067 280.588  0.00  0.00     0.101 A 
HETATM    4  N           1     171.395 188.624 279.892  0.00  0.00    -0.254 NA
HETATM    5  C           1     170.767 187.832 278.996  0.00  0.00     0.118 A 
HETATM    6  C           1     171.109 186.509 278.765  0.00  0.00     0.020 A 
HETATM    7  C           1     172.158 185.963 279.497  0.00  0.00     0.013 A 
BRANCH   3   8
HETATM    8  S           1     173.278 189.096 281.804  0.00  0.00    -0.105 SA
BRANCH   8   9
HETATM    9  C           1     171.908 189.076 282.992  0.00  0.00     0.119 C 
BRANCH   9  10
HETATM   10  C           1     171.195 190.392 282.956  0.00  0.00    -0.049 A 
HETATM   11  C           1     169.933 190.518 283.536  0.00  0.00     0.008 A 
HETATM   12  C           1     169.270 191.744 283.502  0.00  0.00     0.001 A 
HETATM   13  C           1     169.867 192.845 282.888  0.00  0.00     0.000 A 
HETATM   14  C           1     171.129 192.718 282.307  0.00  0.00     0.001 A 
HETATM   15  C           1     171.793 191.492 282.342  0.00  0.00     0.008 A 
ENDBRANCH   9  10
ENDBRANCH   8   9
ENDBRANCH   3   8
ENDBRANCH   1   2
BRANCH   1  16
HETATM   16  N           1     173.520 185.023 281.933  0.00  0.00     0.091 N 
HETATM   17  H           1     172.653 185.224 282.431  0.00  0.00     0.316 HD
BRANCH  16  18
HETATM   18  C           1     174.545 184.669 282.878  0.00  0.00     0.308 C 
BRANCH  18  19
HETATM   19  C           1     174.037 184.887 284.269  0.00  0.00    -0.030 A 
HETATM   20  C           1     174.863 184.625 285.363  0.00  0.00     0.009 A 
HETATM   21  C           1     174.388 184.828 286.659  0.00  0.00     0.009 A 
HETATM   22  C           1     173.088 185.292 286.861  0.00  0.00    -0.030 A 
HETATM   23  C           1     172.264 185.554 285.768  0.00  0.00     0.009 A 
HETATM   24  C           1     172.737 185.351 284.472  0.00  0.00     0.009 A 
BRANCH  22  25
HETATM   25  C           1     172.580 185.509 288.253  0.00  0.00     0.311 C 
BRANCH  25  26
HETATM   26  N           1     173.539 186.276 289.000  0.00  0.00     0.092 N 
HETATM   27  C           1     172.891 187.486 289.499  0.00  0.00     0.273 C 
HETATM   28  C           1     172.021 186.986 290.639  0.00  0.00     0.032 C 
HETATM   29  C           1     172.678 185.690 291.101  0.00  0.00     0.032 C 
HETATM   30  C           1     173.884 185.513 290.196  0.00  0.00     0.273 C 
ENDBRANCH  25  26
ENDBRANCH  22  25
ENDBRANCH  18  19
ENDBRANCH  16  18
ENDBRANCH   1  16
TORSDOF 9
ENDMDL
MODEL 8
REMARK VINA RESULT:      -7.5      1.460      2.173
REMARK  9 active torsions:
REMARK  status: ('A' for Active; 'I' for Inactive)
REMARK    1  A    between atoms: C_4  and  S_22 
REMARK    2  A    between atoms: C_5  and  C_7 
REMARK    3  A    between atoms: C_7  and  N_8 
REMARK    4  A    between atoms: N_8  and  C_9 
REMARK    5  A    between atoms: C_9  and  C_10 
REMARK    6  A    between atoms: C_13  and  C_21 
REMARK    7  A    between atoms: N_16  and  C_21 
REMARK    8  A    between atoms: S_22  and  C_29 
REMARK    9  A    between atoms: C_23  and  C_29 
ROOT
HETATM    1  C           1     174.187 186.505 282.898  0.00  0.00     0.311 C 
ENDROOT
BRANCH   1   2
HETATM    2  C           1     173.290 187.615 282.445  0.00  0.00     0.005 A 
HETATM    3  C           1     172.735 187.607 281.175  0.00  0.00     0.101 A 
HETATM    4  N           1     171.920 188.575 280.706  0.00  0.00    -0.254 NA
HETATM    5  C           1     171.649 189.599 281.546  0.00  0.00     0.118 A 
HETATM    6  C           1     172.156 189.695 282.831  0.00  0.00     0.020 A 
HETATM    7  C           1     172.993 188.682 283.286  0.00  0.00     0.013 A 
BRANCH   3   8
HETATM    8  S           1     173.126 186.214 280.079  0.00  0.00    -0.105 SA
BRANCH   8   9
HETATM    9  C           1     174.460 187.096 279.222  0.00  0.00     0.119 C 
BRANCH   9  10
HETATM   10  C           1     174.627 186.533 277.845  0.00  0.00    -0.049 A 
HETATM   11  C           1     175.888 186.517 277.248  0.00  0.00     0.008 A 
HETATM   12  C           1     176.044 185.991 275.965  0.00  0.00     0.001 A 
HETATM   13  C           1     174.941 185.483 275.279  0.00  0.00     0.000 A 
HETATM   14  C           1     173.681 185.500 275.877  0.00  0.00     0.001 A 
HETATM   15  C           1     173.525 186.024 277.161  0.00  0.00     0.008 A 
ENDBRANCH   9  10
ENDBRANCH   8   9
ENDBRANCH   3   8
ENDBRANCH   1   2
BRANCH   1  16
HETATM   16  N           1     173.440 185.585 283.713  0.00  0.00     0.091 N 
HETATM   17  H           1     172.673 186.080 284.168  0.00  0.00     0.316 HD
BRANCH  16  18
HETATM   18  C           1     174.331 185.060 284.711  0.00  0.00     0.308 C 
BRANCH  18  19
HETATM   19  C           1     173.737 185.266 286.069  0.00  0.00    -0.030 A 
HETATM   20  C           1     172.357 185.164 286.251  0.00  0.00     0.009 A 
HETATM   21  C           1     171.804 185.357 287.517  0.00  0.00     0.009 A 
HETATM   22  C           1     172.631 185.652 288.601  0.00  0.00    -0.030 A 
HETATM   23  C           1     174.009 185.754 288.420  0.00  0.00     0.009 A 
HETATM   24  C           1     174.562 185.561 287.154  0.00  0.00     0.009 A 
BRANCH  22  25
HETATM   25  C           1     172.036 185.859 289.959  0.00  0.00     0.311 C 
BRANCH  25  26
HETATM   26  N           1     170.965 186.813 289.874  0.00  0.00     0.092 N 
HETATM   27  C           1     169.917 186.432 290.817  0.00  0.00     0.273 C 
HETATM   28  C           1     170.492 186.814 292.170  0.00  0.00     0.032 C 
HETATM   29  C           1     171.509 187.910 291.875  0.00  0.00     0.032 C 
HETATM   30  C           1     171.468 188.092 290.368  0.00  0.00     0.273 C 
ENDBRANCH  25  26
ENDBRANCH  22  25
ENDBRANCH  18  19
ENDBRANCH  16  18
ENDBRANCH   1  16
TORSDOF 9
ENDMDL
MODEL 9
REMARK VINA RESULT:      -7.3      3.032     11.113
REMARK  9 active torsions:
REMARK  status: ('A' for Active; 'I' for Inactive)
REMARK    1  A    between atoms: C_4  and  S_22 
REMARK    2  A    between atoms: C_5  and  C_7 
REMARK    3  A    between atoms: C_7  and  N_8 
REMARK    4  A    between atoms: N_8  and  C_9 
REMARK    5  A    between atoms: C_9  and  C_10 
REMARK    6  A    between atoms: C_13  and  C_21 
REMARK    7  A    between atoms: N_16  and  C_21 
REMARK    8  A    between atoms: S_22  and  C_29 
REMARK    9  A    between atoms: C_23  and  C_29 
ROOT
HETATM    1  C           1     172.844 185.707 279.274  0.00  0.00     0.311 C 
ENDROOT
BRANCH   1   2
HETATM    2  C           1     172.476 187.013 279.906  0.00  0.00     0.005 A 
HETATM    3  C           1     173.149 187.477 281.025  0.00  0.00     0.101 A 
HETATM    4  N           1     172.866 188.644 281.642  0.00  0.00    -0.254 NA
HETATM    5  C           1     171.863 189.380 281.115  0.00  0.00     0.118 A 
HETATM    6  C           1     171.133 189.001 280.000  0.00  0.00     0.020 A 
HETATM    7  C           1     171.448 187.793 279.387  0.00  0.00     0.013 A 
BRANCH   3   8
HETATM    8  S           1     174.489 186.456 281.701  0.00  0.00    -0.105 SA
BRANCH   8   9
HETATM    9  C           1     174.531 187.335 283.288  0.00  0.00     0.119 C 
BRANCH   9  10
HETATM   10  C           1     174.080 186.417 284.380  0.00  0.00    -0.049 A 
HETATM   11  C           1     175.003 185.595 285.027  0.00  0.00     0.008 A 
HETATM   12  C           1     174.582 184.740 286.045  0.00  0.00     0.001 A 
HETATM   13  C           1     173.238 184.705 286.417  0.00  0.00     0.000 A 
HETATM   14  C           1     172.315 185.527 285.769  0.00  0.00     0.001 A 
HETATM   15  C           1     172.736 186.383 284.752  0.00  0.00     0.008 A 
ENDBRANCH   9  10
ENDBRANCH   8   9
ENDBRANCH   3   8
ENDBRANCH   1   2
BRANCH   1  16
HETATM   16  N           1     173.076 185.902 277.868  0.00  0.00     0.091 N 
HETATM   17  H           1     172.937 185.018 277.376  0.00  0.00     0.316 HD
BRANCH  16  18
HETATM   18  C           1     174.437 186.334 277.704  0.00  0.00     0.308 C 
BRANCH  18  19
HETATM   19  C           1     174.894 186.028 276.312  0.00  0.00    -0.030 A 
HETATM   20  C           1     173.983 185.557 275.366  0.00  0.00     0.009 A 
HETATM   21  C           1     174.409 185.272 274.068  0.00  0.00     0.009 A 
HETATM   22  C           1     175.746 185.459 273.717  0.00  0.00    -0.030 A 
HETATM   23  C           1     176.656 185.931 274.662  0.00  0.00     0.009 A 
HETATM   24  C           1     176.230 186.215 275.959  0.00  0.00     0.009 A 
BRANCH  22  25
HETATM   25  C           1     176.203 185.153 272.324  0.00  0.00     0.311 C 
BRANCH  25  26
HETATM   26  N           1     175.081 184.720 271.536  0.00  0.00     0.092 N 
HETATM   27  C           1     175.213 185.267 270.188  0.00  0.00     0.273 C 
HETATM   28  C           1     176.308 184.421 269.561  0.00  0.00     0.032 C 
HETATM   29  C           1     176.288 183.108 270.334  0.00  0.00     0.032 C 
HETATM   30  C           1     175.189 183.273 271.368  0.00  0.00     0.273 C 
ENDBRANCH  25  26
ENDBRANCH  22  25
ENDBRANCH  18  19
ENDBRANCH  16  18
ENDBRANCH   1  16
TORSDOF 9
ENDMDL
