MODEL 1
REMARK VINA RESULT:      -7.5      0.000      0.000
REMARK  11 active torsions:
REMARK  status: ('A' for Active; 'I' for Inactive)
REMARK    1  A    between atoms: C_1  and  C_19 
REMARK    2  A    between atoms: C_5  and  S_29 
REMARK    3  A    between atoms: C_6  and  C_8 
REMARK    4  A    between atoms: C_8  and  N_9 
REMARK    5  A    between atoms: N_9  and  C_10 
REMARK    6  A    between atoms: C_10  and  C_11 
REMARK    7  A    between atoms: C_11  and  C_12 
REMARK    8  A    between atoms: N_15  and  C_18 
REMARK    9  A    between atoms: C_22  and  O_37 
REMARK   10  A    between atoms: S_29  and  C_36 
REMARK   11  A    between atoms: C_30  and  C_36 
ROOT
HETATM    1  C           1     175.190 185.342 272.075  0.00  0.00    -0.010 A 
HETATM    2  C           1     175.752 185.993 270.988  0.00  0.00     0.101 A 
HETATM    3  N           1     175.273 185.900 269.728  0.00  0.00    -0.359 N 
ATOM      4  HN          1     175.712 186.394 268.951  1.00  0.00     0.166 HD
HETATM    5  C           1     174.183 185.122 269.549  0.00  0.00     0.077 A 
HETATM    6  C           1     173.553 184.433 270.574  0.00  0.00     0.004 A 
HETATM    7  C           1     174.069 184.548 271.860  0.00  0.00     0.025 A 
ENDROOT
BRANCH   6   8
HETATM    8  C           1     172.347 183.588 270.301  0.00  0.00     0.311 C 
BRANCH   8   9
HETATM    9  N           1     171.312 183.910 271.246  0.00  0.00     0.087 N 
HETATM   10  H           1     170.635 183.147 271.283  0.00  0.00     0.316 HD
BRANCH   9  11
HETATM   11  C           1     170.660 185.107 270.788  0.00  0.00     0.270 C 
BRANCH  11  12
HETATM   12  C           1     170.187 185.918 271.987  0.00  0.00     0.034 C 
BRANCH  12  13
HETATM   13  C           1     170.958 187.230 272.050  0.00  0.00    -0.010 C 
HETATM   14  C           1     172.035 187.128 273.126  0.00  0.00     0.035 C 
HETATM   15  C           1     172.962 188.342 273.098  0.00  0.00     0.273 C 
HETATM   16  N           1     173.556 188.532 271.775  0.00  0.00     0.093 N 
HETATM   17  C           1     172.529 188.708 270.747  0.00  0.00     0.273 C 
HETATM   18  C           1     171.586 187.508 270.688  0.00  0.00     0.035 C 
BRANCH  16  19
HETATM   19  C           1     174.312 189.753 271.851  0.00  0.00     0.223 C 
HETATM   20  C           1     175.541 189.689 270.958  0.00  0.00     0.036 C 
HETATM   21  C           1     175.816 191.133 270.537  0.00  0.00     0.002 C 
HETATM   22  C           1     174.599 191.946 270.971  0.00  0.00     0.002 C 
HETATM   23  C           1     173.522 190.918 271.280  0.00  0.00     0.036 C 
ENDBRANCH  16  19
ENDBRANCH  12  13
ENDBRANCH  11  12
ENDBRANCH   9  11
ENDBRANCH   8   9
ENDBRANCH   6   8
BRANCH   5  24
HETATM   24  S           1     173.506 184.970 267.872  0.00  0.00    -0.107 SA
BRANCH  24  25
HETATM   25  C           1     174.538 186.302 267.199  0.00  0.00     0.119 C 
BRANCH  25  26
HETATM   26  C           1     173.770 187.587 267.217  0.00  0.00    -0.049 A 
HETATM   27  C           1     172.436 187.608 266.807  0.00  0.00     0.008 A 
HETATM   28  C           1     171.721 188.806 266.823  0.00  0.00     0.001 A 
HETATM   29  C           1     172.338 189.982 267.251  0.00  0.00     0.000 A 
HETATM   30  C           1     173.672 189.960 267.661  0.00  0.00     0.001 A 
HETATM   31  C           1     174.387 188.762 267.644  0.00  0.00     0.008 A 
ENDBRANCH  25  26
ENDBRANCH  24  25
ENDBRANCH   5  24
BRANCH   1  32
HETATM   32  C           1     175.713 185.474 273.298  0.00  0.00    -0.024 A 
HETATM   33  C           1     176.935 186.126 273.468  0.00  0.00     0.015 A 
HETATM   34  C           1     177.481 186.264 274.743  0.00  0.00     0.037 A 
HETATM   35  C           1     176.806 185.749 275.850  0.00  0.00     0.068 A 
HETATM   36  C           1     175.584 185.097 275.681  0.00  0.00     0.037 A 
HETATM   37  C           1     175.038 184.960 274.405  0.00  0.00     0.015 A 
BRANCH  35  38
HETATM   38  O           1     177.336 185.883 277.090  0.00  0.00    -0.356 OA
HETATM   39  C           1     178.608 185.296 277.155  0.00  0.00     0.210 C 
ENDBRANCH  35  38
ENDBRANCH   1  32
TORSDOF 11
ENDMDL
MODEL 2
REMARK VINA RESULT:      -7.4      9.149     12.706
REMARK  11 active torsions:
REMARK  status: ('A' for Active; 'I' for Inactive)
REMARK    1  A    between atoms: C_1  and  C_19 
REMARK    2  A    between atoms: C_5  and  S_29 
REMARK    3  A    between atoms: C_6  and  C_8 
REMARK    4  A    between atoms: C_8  and  N_9 
REMARK    5  A    between atoms: N_9  and  C_10 
REMARK    6  A    between atoms: C_10  and  C_11 
REMARK    7  A    between atoms: C_11  and  C_12 
REMARK    8  A    between atoms: N_15  and  C_18 
REMARK    9  A    between atoms: C_22  and  O_37 
REMARK   10  A    between atoms: S_29  and  C_36 
REMARK   11  A    between atoms: C_30  and  C_36 
ROOT
HETATM    1  C           1     171.508 189.297 280.807  0.00  0.00    -0.010 A 
HETATM    2  C           1     170.765 188.917 279.699  0.00  0.00     0.101 A 
HETATM    3  N           1     171.035 187.824 278.954  0.00  0.00    -0.359 N 
ATOM      4  HN          1     170.466 187.574 278.145  1.00  0.00     0.166 HD
HETATM    5  C           1     172.095 187.078 279.333  0.00  0.00     0.077 A 
HETATM    6  C           1     172.896 187.377 280.424  0.00  0.00     0.004 A 
HETATM    7  C           1     172.594 188.509 281.173  0.00  0.00     0.025 A 
ENDROOT
BRANCH   6   8
HETATM    8  C           1     174.057 186.503 280.786  0.00  0.00     0.311 C 
BRANCH   8   9
HETATM    9  N           1     174.986 187.248 281.592  0.00  0.00     0.087 N 
HETATM   10  H           1     175.739 187.604 281.002  0.00  0.00     0.316 HD
BRANCH   9  11
HETATM   11  C           1     175.531 186.350 282.573  0.00  0.00     0.270 C 
BRANCH  11  12
HETATM   12  C           1     174.672 185.093 282.644  0.00  0.00     0.034 C 
BRANCH  12  13
HETATM   13  C           1     174.126 184.929 284.057  0.00  0.00    -0.010 C 
HETATM   14  C           1     175.174 185.408 285.057  0.00  0.00     0.035 C 
HETATM   15  C           1     174.607 185.449 286.476  0.00  0.00     0.273 C 
HETATM   16  N           1     173.398 186.269 286.546  0.00  0.00     0.093 N 
HETATM   17  C           1     172.359 185.769 285.644  0.00  0.00     0.273 C 
HETATM   18  C           1     172.842 185.741 284.196  0.00  0.00     0.035 C 
BRANCH  16  19
HETATM   19  C           1     172.909 186.139 287.892  0.00  0.00     0.223 C 
HETATM   20  C           1     173.982 185.572 288.809  0.00  0.00     0.036 C 
HETATM   21  C           1     173.679 186.143 290.194  0.00  0.00     0.002 C 
HETATM   22  C           1     172.618 187.223 289.991  0.00  0.00     0.002 C 
HETATM   23  C           1     172.613 187.501 288.496  0.00  0.00     0.036 C 
ENDBRANCH  16  19
ENDBRANCH  12  13
ENDBRANCH  11  12
ENDBRANCH   9  11
ENDBRANCH   8   9
ENDBRANCH   6   8
BRANCH   5  24
HETATM   24  S           1     172.493 185.599 278.358  0.00  0.00    -0.107 SA
BRANCH  24  25
HETATM   25  C           1     173.017 186.546 276.901  0.00  0.00     0.119 C 
BRANCH  25  26
HETATM   26  C           1     174.426 186.183 276.550  0.00  0.00    -0.049 A 
HETATM   27  C           1     174.678 185.282 275.515  0.00  0.00     0.008 A 
HETATM   28  C           1     175.991 184.944 275.188  0.00  0.00     0.001 A 
HETATM   29  C           1     177.053 185.508 275.896  0.00  0.00     0.000 A 
HETATM   30  C           1     176.802 186.409 276.931  0.00  0.00     0.001 A 
HETATM   31  C           1     175.488 186.746 277.257  0.00  0.00     0.008 A 
ENDBRANCH  25  26
ENDBRANCH  24  25
ENDBRANCH   5  24
BRANCH   1  32
HETATM   32  C           1     171.188 190.392 281.503  0.00  0.00    -0.024 A 
HETATM   33  C           1     172.061 191.480 281.533  0.00  0.00     0.015 A 
HETATM   34  C           1     171.728 192.622 282.260  0.00  0.00     0.037 A 
HETATM   35  C           1     170.523 192.677 282.959  0.00  0.00     0.068 A 
HETATM   36  C           1     169.649 191.589 282.930  0.00  0.00     0.037 A 
HETATM   37  C           1     169.982 190.448 282.202  0.00  0.00     0.015 A 
BRANCH  35  38
HETATM   38  O           1     170.199 193.787 283.666  0.00  0.00    -0.356 OA
HETATM   39  C           1     169.660 193.443 284.914  0.00  0.00     0.210 C 
ENDBRANCH  35  38
ENDBRANCH   1  32
TORSDOF 11
ENDMDL
MODEL 3
REMARK VINA RESULT:      -7.2      4.941      8.894
REMARK  11 active torsions:
REMARK  status: ('A' for Active; 'I' for Inactive)
REMARK    1  A    between atoms: C_1  and  C_19 
REMARK    2  A    between atoms: C_5  and  S_29 
REMARK    3  A    between atoms: C_6  and  C_8 
REMARK    4  A    between atoms: C_8  and  N_9 
REMARK    5  A    between atoms: N_9  and  C_10 
REMARK    6  A    between atoms: C_10  and  C_11 
REMARK    7  A    between atoms: C_11  and  C_12 
REMARK    8  A    between atoms: N_15  and  C_18 
REMARK    9  A    between atoms: C_22  and  O_37 
REMARK   10  A    between atoms: S_29  and  C_36 
REMARK   11  A    between atoms: C_30  and  C_36 
ROOT
HETATM    1  C           1     174.626 186.114 276.452  0.00  0.00    -0.010 A 
HETATM    2  C           1     175.420 186.767 277.383  0.00  0.00     0.101 A 
HETATM    3  N           1     175.020 187.055 278.641  0.00  0.00    -0.359 N 
ATOM      4  HN          1     175.631 187.536 279.300  1.00  0.00     0.166 HD
HETATM    5  C           1     173.770 186.672 278.982  0.00  0.00     0.077 A 
HETATM    6  C           1     172.904 186.015 278.122  0.00  0.00     0.004 A 
HETATM    7  C           1     173.344 185.732 276.833  0.00  0.00     0.025 A 
ENDROOT
BRANCH   6   8
HETATM    8  C           1     171.530 185.621 278.569  0.00  0.00     0.311 C 
BRANCH   8   9
HETATM    9  N           1     170.598 185.823 277.493  0.00  0.00     0.087 N 
HETATM   10  H           1     171.091 185.766 276.601  0.00  0.00     0.316 HD
BRANCH   9  11
HETATM   11  C           1     170.034 187.137 277.645  0.00  0.00     0.270 C 
BRANCH  11  12
HETATM   12  C           1     169.709 187.712 276.272  0.00  0.00     0.034 C 
BRANCH  12  13
HETATM   13  C           1     170.893 187.499 275.338  0.00  0.00    -0.010 C 
HETATM   14  C           1     170.377 187.204 273.933  0.00  0.00     0.035 C 
HETATM   15  C           1     171.518 187.174 272.918  0.00  0.00     0.273 C 
HETATM   16  N           1     172.291 188.416 272.945  0.00  0.00     0.093 N 
HETATM   17  C           1     172.855 188.667 274.272  0.00  0.00     0.273 C 
HETATM   18  C           1     171.763 188.752 275.337  0.00  0.00     0.035 C 
BRANCH  16  19
HETATM   19  C           1     173.386 188.222 272.035  0.00  0.00     0.223 C 
HETATM   20  C           1     173.181 189.022 270.758  0.00  0.00     0.036 C 
HETATM   21  C           1     174.586 189.347 270.249  0.00  0.00     0.002 C 
HETATM   22  C           1     175.548 188.966 271.372  0.00  0.00     0.002 C 
HETATM   23  C           1     174.674 188.792 272.604  0.00  0.00     0.036 C 
ENDBRANCH  16  19
ENDBRANCH  12  13
ENDBRANCH  11  12
ENDBRANCH   9  11
ENDBRANCH   8   9
ENDBRANCH   6   8
BRANCH   5  24
HETATM   24  S           1     173.191 187.039 280.663  0.00  0.00    -0.107 SA
BRANCH  24  25
HETATM   25  C           1     174.627 186.269 281.461  0.00  0.00     0.119 C 
BRANCH  25  26
HETATM   26  C           1     174.265 185.861 282.855  0.00  0.00    -0.049 A 
HETATM   27  C           1     175.268 185.586 283.785  0.00  0.00     0.008 A 
HETATM   28  C           1     174.929 185.204 285.083  0.00  0.00     0.001 A 
HETATM   29  C           1     173.588 185.100 285.452  0.00  0.00     0.000 A 
HETATM   30  C           1     172.585 185.375 284.523  0.00  0.00     0.001 A 
HETATM   31  C           1     172.924 185.756 283.224  0.00  0.00     0.008 A 
ENDBRANCH  25  26
ENDBRANCH  24  25
ENDBRANCH   5  24
BRANCH   1  32
HETATM   32  C           1     175.082 185.858 275.223  0.00  0.00    -0.024 A 
HETATM   33  C           1     174.266 185.206 274.297  0.00  0.00     0.015 A 
HETATM   34  C           1     174.742 184.939 273.014  0.00  0.00     0.037 A 
HETATM   35  C           1     176.034 185.323 272.655  0.00  0.00     0.068 A 
HETATM   36  C           1     176.851 185.975 273.580  0.00  0.00     0.037 A 
HETATM   37  C           1     176.374 186.242 274.863  0.00  0.00     0.015 A 
BRANCH  35  38
HETATM   38  O           1     176.497 185.063 271.408  0.00  0.00    -0.356 OA
HETATM   39  C           1     175.513 185.329 270.446  0.00  0.00     0.210 C 
ENDBRANCH  35  38
ENDBRANCH   1  32
TORSDOF 11
ENDMDL
MODEL 4
REMARK VINA RESULT:      -6.8      5.550      7.782
REMARK  11 active torsions:
REMARK  status: ('A' for Active; 'I' for Inactive)
REMARK    1  A    between atoms: C_1  and  C_19 
REMARK    2  A    between atoms: C_5  and  S_29 
REMARK    3  A    between atoms: C_6  and  C_8 
REMARK    4  A    between atoms: C_8  and  N_9 
REMARK    5  A    between atoms: N_9  and  C_10 
REMARK    6  A    between atoms: C_10  and  C_11 
REMARK    7  A    between atoms: C_11  and  C_12 
REMARK    8  A    between atoms: N_15  and  C_18 
REMARK    9  A    between atoms: C_22  and  O_37 
REMARK   10  A    between atoms: S_29  and  C_36 
REMARK   11  A    between atoms: C_30  and  C_36 
ROOT
HETATM    1  C           1     173.902 186.111 281.446  0.00  0.00    -0.010 A 
HETATM    2  C           1     174.987 186.808 280.938  0.00  0.00     0.101 A 
HETATM    3  N           1     175.122 187.142 279.636  0.00  0.00    -0.359 N 
ATOM      4  HN          1     175.934 187.657 279.296  1.00  0.00     0.166 HD
HETATM    5  C           1     174.127 186.759 278.806  0.00  0.00     0.077 A 
HETATM    6  C           1     173.004 186.059 279.221  0.00  0.00     0.004 A 
HETATM    7  C           1     172.893 185.731 280.567  0.00  0.00     0.025 A 
ENDROOT
BRANCH   6   8
HETATM    8  C           1     171.939 185.668 278.243  0.00  0.00     0.311 C 
BRANCH   8   9
HETATM    9  N           1     170.693 186.278 278.622  0.00  0.00     0.087 N 
HETATM   10  H           1     169.918 185.695 278.304  0.00  0.00     0.316 HD
BRANCH   9  11
HETATM   11  C           1     170.622 187.561 277.977  0.00  0.00     0.270 C 
BRANCH  11  12
HETATM   12  C           1     169.563 187.522 276.883  0.00  0.00     0.034 C 
BRANCH  12  13
HETATM   13  C           1     170.149 188.069 275.588  0.00  0.00    -0.010 C 
HETATM   14  C           1     171.164 189.159 275.918  0.00  0.00     0.035 C 
HETATM   15  C           1     171.923 189.606 274.670  0.00  0.00     0.273 C 
HETATM   16  N           1     172.565 188.475 274.000  0.00  0.00     0.093 N 
HETATM   17  C           1     171.587 187.458 273.611  0.00  0.00     0.273 C 
HETATM   18  C           1     170.815 186.932 274.819  0.00  0.00     0.035 C 
BRANCH  16  19
HETATM   19  C           1     173.148 189.005 272.798  0.00  0.00     0.223 C 
HETATM   20  C           1     174.665 189.038 272.896  0.00  0.00     0.036 C 
HETATM   21  C           1     175.172 188.884 271.462  0.00  0.00     0.002 C 
HETATM   22  C           1     173.960 188.499 270.618  0.00  0.00     0.002 C 
HETATM   23  C           1     172.893 188.082 271.618  0.00  0.00     0.036 C 
ENDBRANCH  16  19
ENDBRANCH  12  13
ENDBRANCH  11  12
ENDBRANCH   9  11
ENDBRANCH   8   9
ENDBRANCH   6   8
BRANCH   5  24
HETATM   24  S           1     174.267 187.186 277.047  0.00  0.00    -0.107 SA
BRANCH  24  25
HETATM   25  C           1     175.259 185.722 276.641  0.00  0.00     0.119 C 
BRANCH  25  26
HETATM   26  C           1     175.440 185.638 275.157  0.00  0.00    -0.049 A 
HETATM   27  C           1     174.409 185.147 274.356  0.00  0.00     0.008 A 
HETATM   28  C           1     174.577 185.067 272.973  0.00  0.00     0.001 A 
HETATM   29  C           1     175.777 185.480 272.392  0.00  0.00     0.000 A 
HETATM   30  C           1     176.808 185.971 273.193  0.00  0.00     0.001 A 
HETATM   31  C           1     176.639 186.049 274.576  0.00  0.00     0.008 A 
ENDBRANCH  25  26
ENDBRANCH  24  25
ENDBRANCH   5  24
BRANCH   1  32
HETATM   32  C           1     173.828 185.811 282.746  0.00  0.00    -0.024 A 
HETATM   33  C           1     172.729 186.227 283.497  0.00  0.00     0.015 A 
HETATM   34  C           1     172.652 185.915 284.854  0.00  0.00     0.037 A 
HETATM   35  C           1     173.676 185.189 285.462  0.00  0.00     0.068 A 
HETATM   36  C           1     174.777 184.773 284.711  0.00  0.00     0.037 A 
HETATM   37  C           1     174.852 185.084 283.354  0.00  0.00     0.015 A 
BRANCH  35  38
HETATM   38  O           1     173.602 184.885 286.781  0.00  0.00    -0.356 OA
HETATM   39  C           1     174.000 185.977 287.566  0.00  0.00     0.210 C 
ENDBRANCH  35  38
ENDBRANCH   1  32
TORSDOF 11
ENDMDL
MODEL 5
REMARK VINA RESULT:      -6.7      7.966     11.872
REMARK  11 active torsions:
REMARK  status: ('A' for Active; 'I' for Inactive)
REMARK    1  A    between atoms: C_1  and  C_19 
REMARK    2  A    between atoms: C_5  and  S_29 
REMARK    3  A    between atoms: C_6  and  C_8 
REMARK    4  A    between atoms: C_8  and  N_9 
REMARK    5  A    between atoms: N_9  and  C_10 
REMARK    6  A    between atoms: C_10  and  C_11 
REMARK    7  A    between atoms: C_11  and  C_12 
REMARK    8  A    between atoms: N_15  and  C_18 
REMARK    9  A    between atoms: C_22  and  O_37 
REMARK   10  A    between atoms: S_29  and  C_36 
REMARK   11  A    between atoms: C_30  and  C_36 
ROOT
HETATM    1  C           1     172.705 189.415 282.422  0.00  0.00    -0.010 A 
HETATM    2  C           1     173.658 189.220 283.409  0.00  0.00     0.101 A 
HETATM    3  N           1     174.576 188.230 283.381  0.00  0.00    -0.359 N 
ATOM      4  HN          1     175.264 188.116 284.126  1.00  0.00     0.166 HD
HETATM    5  C           1     174.539 187.398 282.318  0.00  0.00     0.077 A 
HETATM    6  C           1     173.624 187.513 281.282  0.00  0.00     0.004 A 
HETATM    7  C           1     172.691 188.542 281.339  0.00  0.00     0.025 A 
ENDROOT
BRANCH   6   8
HETATM    8  C           1     173.642 186.553 280.133  0.00  0.00     0.311 C 
BRANCH   8   9
HETATM    9  N           1     172.398 186.638 279.417  0.00  0.00     0.087 N 
HETATM   10  H           1     171.847 185.797 279.591  0.00  0.00     0.316 HD
BRANCH   9  11
HETATM   11  C           1     172.706 186.727 278.016  0.00  0.00     0.270 C 
BRANCH  11  12
HETATM   12  C           1     174.210 186.590 277.817  0.00  0.00     0.034 C 
BRANCH  12  13
HETATM   13  C           1     174.525 186.552 276.327  0.00  0.00    -0.010 C 
HETATM   14  C           1     175.369 185.318 276.024  0.00  0.00     0.035 C 
HETATM   15  C           1     175.549 185.126 274.519  0.00  0.00     0.273 C 
HETATM   16  N           1     174.261 185.065 273.829  0.00  0.00     0.093 N 
HETATM   17  C           1     173.476 186.280 274.052  0.00  0.00     0.273 C 
HETATM   18  C           1     173.219 186.514 275.540  0.00  0.00     0.035 C 
BRANCH  16  19
HETATM   19  C           1     174.565 184.993 272.426  0.00  0.00     0.223 C 
HETATM   20  C           1     176.020 185.354 272.165  0.00  0.00     0.036 C 
HETATM   21  C           1     176.415 184.576 270.909  0.00  0.00     0.002 C 
HETATM   22  C           1     175.280 183.592 270.639  0.00  0.00     0.002 C 
HETATM   23  C           1     174.462 183.564 271.920  0.00  0.00     0.036 C 
ENDBRANCH  16  19
ENDBRANCH  12  13
ENDBRANCH  11  12
ENDBRANCH   9  11
ENDBRANCH   8   9
ENDBRANCH   6   8
BRANCH   5  24
HETATM   24  S           1     175.755 186.053 282.240  0.00  0.00    -0.107 SA
BRANCH  24  25
HETATM   25  C           1     174.528 184.755 282.556  0.00  0.00     0.119 C 
BRANCH  25  26
HETATM   26  C           1     174.062 184.842 283.976  0.00  0.00    -0.049 A 
HETATM   27  C           1     172.742 185.196 284.257  0.00  0.00     0.008 A 
HETATM   28  C           1     172.309 185.279 285.580  0.00  0.00     0.001 A 
HETATM   29  C           1     173.194 185.006 286.623  0.00  0.00     0.000 A 
HETATM   30  C           1     174.514 184.652 286.342  0.00  0.00     0.001 A 
HETATM   31  C           1     174.948 184.570 285.018  0.00  0.00     0.008 A 
ENDBRANCH  25  26
ENDBRANCH  24  25
ENDBRANCH   5  24
BRANCH   1  32
HETATM   32  C           1     171.823 190.415 282.509  0.00  0.00    -0.024 A 
HETATM   33  C           1     170.612 190.222 283.175  0.00  0.00     0.015 A 
HETATM   34  C           1     169.692 191.265 283.265  0.00  0.00     0.037 A 
HETATM   35  C           1     169.980 192.502 282.689  0.00  0.00     0.068 A 
HETATM   36  C           1     171.190 192.696 282.022  0.00  0.00     0.037 A 
HETATM   37  C           1     172.111 191.652 281.932  0.00  0.00     0.015 A 
BRANCH  35  38
HETATM   38  O           1     169.085 193.516 282.776  0.00  0.00    -0.356 OA
HETATM   39  C           1     169.341 194.311 283.901  0.00  0.00     0.210 C 
ENDBRANCH  35  38
ENDBRANCH   1  32
TORSDOF 11
ENDMDL
MODEL 6
REMARK VINA RESULT:      -6.7      3.163      6.937
REMARK  11 active torsions:
REMARK  status: ('A' for Active; 'I' for Inactive)
REMARK    1  A    between atoms: C_1  and  C_19 
REMARK    2  A    between atoms: C_5  and  S_29 
REMARK    3  A    between atoms: C_6  and  C_8 
REMARK    4  A    between atoms: C_8  and  N_9 
REMARK    5  A    between atoms: N_9  and  C_10 
REMARK    6  A    between atoms: C_10  and  C_11 
REMARK    7  A    between atoms: C_11  and  C_12 
REMARK    8  A    between atoms: N_15  and  C_18 
REMARK    9  A    between atoms: C_22  and  O_37 
REMARK   10  A    between atoms: S_29  and  C_36 
REMARK   11  A    between atoms: C_30  and  C_36 
ROOT
HETATM    1  C           1     172.936 189.304 267.724  0.00  0.00    -0.010 A 
HETATM    2  C           1     174.269 189.067 268.022  0.00  0.00     0.101 A 
HETATM    3  N           1     174.929 187.942 267.668  0.00  0.00    -0.359 N 
ATOM      4  HN          1     175.911 187.801 267.903  1.00  0.00     0.166 HD
HETATM    5  C           1     174.222 187.014 266.986  0.00  0.00     0.077 A 
HETATM    6  C           1     172.887 187.162 266.642  0.00  0.00     0.004 A 
HETATM    7  C           1     172.235 188.330 267.020  0.00  0.00     0.025 A 
ENDROOT
BRANCH   6   8
HETATM    8  C           1     172.167 186.090 265.884  0.00  0.00     0.311 C 
BRANCH   8   9
HETATM    9  N           1     171.070 185.598 266.673  0.00  0.00     0.087 N 
HETATM   10  H           1     170.780 186.317 267.337  0.00  0.00     0.316 HD
BRANCH   9  11
HETATM   11  C           1     171.533 184.442 267.391  0.00  0.00     0.270 C 
BRANCH  11  12
HETATM   12  C           1     171.263 184.627 268.879  0.00  0.00     0.034 C 
BRANCH  12  13
HETATM   13  C           1     172.574 184.535 269.649  0.00  0.00    -0.010 C 
HETATM   14  C           1     172.937 185.916 270.187  0.00  0.00     0.035 C 
HETATM   15  C           1     174.138 185.846 271.128  0.00  0.00     0.273 C 
HETATM   16  N           1     173.908 184.899 272.220  0.00  0.00     0.093 N 
HETATM   17  C           1     173.634 183.554 271.713  0.00  0.00     0.273 C 
HETATM   18  C           1     172.415 183.539 270.793  0.00  0.00     0.035 C 
BRANCH  16  19
HETATM   19  C           1     175.136 184.845 272.964  0.00  0.00     0.223 C 
HETATM   20  C           1     176.097 185.933 272.508  0.00  0.00     0.036 C 
HETATM   21  C           1     176.947 186.268 273.734  0.00  0.00     0.002 C 
HETATM   22  C           1     176.284 185.570 274.920  0.00  0.00     0.002 C 
HETATM   23  C           1     174.901 185.176 274.428  0.00  0.00     0.036 C 
ENDBRANCH  16  19
ENDBRANCH  12  13
ENDBRANCH  11  12
ENDBRANCH   9  11
ENDBRANCH   8   9
ENDBRANCH   6   8
BRANCH   5  24
HETATM   24  S           1     175.070 185.488 266.490  0.00  0.00    -0.107 SA
BRANCH  24  25
HETATM   25  C           1     176.161 185.473 267.940  0.00  0.00     0.119 C 
BRANCH  25  26
HETATM   26  C           1     176.152 184.109 268.558  0.00  0.00    -0.049 A 
HETATM   27  C           1     176.835 183.880 269.753  0.00  0.00     0.008 A 
HETATM   28  C           1     176.827 182.609 270.327  0.00  0.00     0.001 A 
HETATM   29  C           1     176.136 181.567 269.708  0.00  0.00     0.000 A 
HETATM   30  C           1     175.453 181.796 268.513  0.00  0.00     0.001 A 
HETATM   31  C           1     175.462 183.068 267.938  0.00  0.00     0.008 A 
ENDBRANCH  25  26
ENDBRANCH  24  25
ENDBRANCH   5  24
BRANCH   1  32
HETATM   32  C           1     172.341 190.439 268.103  0.00  0.00    -0.024 A 
HETATM   33  C           1     172.549 190.941 269.388  0.00  0.00     0.015 A 
HETATM   34  C           1     171.928 192.125 269.784  0.00  0.00     0.037 A 
HETATM   35  C           1     171.097 192.807 268.897  0.00  0.00     0.068 A 
HETATM   36  C           1     170.887 192.306 267.611  0.00  0.00     0.037 A 
HETATM   37  C           1     171.509 191.122 267.215  0.00  0.00     0.015 A 
BRANCH  35  38
HETATM   38  O           1     170.493 193.958 269.281  0.00  0.00    -0.356 OA
HETATM   39  C           1     170.555 194.113 270.673  0.00  0.00     0.210 C 
ENDBRANCH  35  38
ENDBRANCH   1  32
TORSDOF 11
ENDMDL
MODEL 7
REMARK VINA RESULT:      -6.7      7.588      9.805
REMARK  11 active torsions:
REMARK  status: ('A' for Active; 'I' for Inactive)
REMARK    1  A    between atoms: C_1  and  C_19 
REMARK    2  A    between atoms: C_5  and  S_29 
REMARK    3  A    between atoms: C_6  and  C_8 
REMARK    4  A    between atoms: C_8  and  N_9 
REMARK    5  A    between atoms: N_9  and  C_10 
REMARK    6  A    between atoms: C_10  and  C_11 
REMARK    7  A    between atoms: C_11  and  C_12 
REMARK    8  A    between atoms: N_15  and  C_18 
REMARK    9  A    between atoms: C_22  and  O_37 
REMARK   10  A    between atoms: S_29  and  C_36 
REMARK   11  A    between atoms: C_30  and  C_36 
ROOT
HETATM    1  C           1     173.523 186.344 280.893  0.00  0.00    -0.010 A 
HETATM    2  C           1     174.603 186.837 280.176  0.00  0.00     0.101 A 
HETATM    3  N           1     174.588 187.037 278.840  0.00  0.00    -0.359 N 
ATOM      4  HN          1     175.401 187.402 278.344  1.00  0.00     0.166 HD
HETATM    5  C           1     173.442 186.730 278.194  0.00  0.00     0.077 A 
HETATM    6  C           1     172.312 186.233 278.824  0.00  0.00     0.004 A 
HETATM    7  C           1     172.357 186.038 280.200  0.00  0.00     0.025 A 
ENDROOT
BRANCH   6   8
HETATM    8  C           1     171.074 185.915 278.042  0.00  0.00     0.311 C 
BRANCH   8   9
HETATM    9  N           1     169.975 186.691 278.548  0.00  0.00     0.087 N 
HETATM   10  H           1     169.167 186.085 278.690  0.00  0.00     0.316 HD
BRANCH   9  11
HETATM   11  C           1     169.656 187.689 277.563  0.00  0.00     0.270 C 
BRANCH  11  12
HETATM   12  C           1     170.422 188.970 277.872  0.00  0.00     0.034 C 
BRANCH  12  13
HETATM   13  C           1     169.946 189.537 279.203  0.00  0.00    -0.010 C 
HETATM   14  C           1     171.118 189.573 280.180  0.00  0.00     0.035 C 
HETATM   15  C           1     170.746 190.312 281.465  0.00  0.00     0.273 C 
HETATM   16  N           1     170.253 191.660 281.184  0.00  0.00     0.093 N 
HETATM   17  C           1     169.080 191.630 280.308  0.00  0.00     0.273 C 
HETATM   18  C           1     169.391 190.940 278.981  0.00  0.00     0.035 C 
BRANCH  16  19
HETATM   19  C           1     169.840 192.203 282.449  0.00  0.00     0.223 C 
HETATM   20  C           1     171.043 192.525 283.322  0.00  0.00     0.036 C 
HETATM   21  C           1     170.604 193.689 284.211  0.00  0.00     0.002 C 
HETATM   22  C           1     169.271 194.179 283.649  0.00  0.00     0.002 C 
HETATM   23  C           1     169.166 193.553 282.268  0.00  0.00     0.036 C 
ENDBRANCH  16  19
ENDBRANCH  12  13
ENDBRANCH  11  12
ENDBRANCH   9  11
ENDBRANCH   8   9
ENDBRANCH   6   8
BRANCH   5  24
HETATM   24  S           1     173.378 186.984 276.398  0.00  0.00    -0.107 SA
BRANCH  24  25
HETATM   25  C           1     174.226 185.425 276.020  0.00  0.00     0.119 C 
BRANCH  25  26
HETATM   26  C           1     175.634 185.712 275.596  0.00  0.00    -0.049 A 
HETATM   27  C           1     176.683 185.539 276.499  0.00  0.00     0.008 A 
HETATM   28  C           1     177.994 185.807 276.105  0.00  0.00     0.001 A 
HETATM   29  C           1     178.255 186.246 274.807  0.00  0.00     0.000 A 
HETATM   30  C           1     177.206 186.418 273.903  0.00  0.00     0.001 A 
HETATM   31  C           1     175.895 186.151 274.299  0.00  0.00     0.008 A 
ENDBRANCH  25  26
ENDBRANCH  24  25
ENDBRANCH   5  24
BRANCH   1  32
HETATM   32  C           1     173.602 186.169 282.216  0.00  0.00    -0.024 A 
HETATM   33  C           1     174.492 185.232 282.744  0.00  0.00     0.015 A 
HETATM   34  C           1     174.574 185.049 284.123  0.00  0.00     0.037 A 
HETATM   35  C           1     173.766 185.800 284.976  0.00  0.00     0.068 A 
HETATM   36  C           1     172.876 186.737 284.449  0.00  0.00     0.037 A 
HETATM   37  C           1     172.795 186.921 283.069  0.00  0.00     0.015 A 
BRANCH  35  38
HETATM   38  O           1     173.845 185.622 286.317  0.00  0.00    -0.356 OA
HETATM   39  C           1     173.124 186.615 286.996  0.00  0.00     0.210 C 
ENDBRANCH  35  38
ENDBRANCH   1  32
TORSDOF 11
ENDMDL
MODEL 8
REMARK VINA RESULT:      -6.7      9.823     13.794
REMARK  11 active torsions:
REMARK  status: ('A' for Active; 'I' for Inactive)
REMARK    1  A    between atoms: C_1  and  C_19 
REMARK    2  A    between atoms: C_5  and  S_29 
REMARK    3  A    between atoms: C_6  and  C_8 
REMARK    4  A    between atoms: C_8  and  N_9 
REMARK    5  A    between atoms: N_9  and  C_10 
REMARK    6  A    between atoms: C_10  and  C_11 
REMARK    7  A    between atoms: C_11  and  C_12 
REMARK    8  A    between atoms: N_15  and  C_18 
REMARK    9  A    between atoms: C_22  and  O_37 
REMARK   10  A    between atoms: S_29  and  C_36 
REMARK   11  A    between atoms: C_30  and  C_36 
ROOT
HETATM    1  C           1     173.675 186.686 279.162  0.00  0.00    -0.010 A 
HETATM    2  C           1     172.705 187.659 279.349  0.00  0.00     0.101 A 
HETATM    3  N           1     172.208 188.002 280.557  0.00  0.00    -0.359 N 
ATOM      4  HN          1     171.495 188.724 280.658  1.00  0.00     0.166 HD
HETATM    5  C           1     172.704 187.341 281.626  0.00  0.00     0.077 A 
HETATM    6  C           1     173.673 186.354 281.539  0.00  0.00     0.004 A 
HETATM    7  C           1     174.166 186.023 280.282  0.00  0.00     0.025 A 
ENDROOT
BRANCH   6   8
HETATM    8  C           1     174.177 185.662 282.769  0.00  0.00     0.311 C 
BRANCH   8   9
HETATM    9  N           1     175.404 186.278 283.197  0.00  0.00     0.087 N 
HETATM   10  H           1     176.162 185.990 282.578  0.00  0.00     0.316 HD
BRANCH   9  11
HETATM   11  C           1     175.677 185.822 284.533  0.00  0.00     0.270 C 
BRANCH  11  12
HETATM   12  C           1     174.846 184.579 284.825  0.00  0.00     0.034 C 
BRANCH  12  13
HETATM   13  C           1     174.344 184.629 286.262  0.00  0.00    -0.010 C 
HETATM   14  C           1     175.221 185.584 287.067  0.00  0.00     0.035 C 
HETATM   15  C           1     174.647 185.822 288.462  0.00  0.00     0.273 C 
HETATM   16  N           1     173.266 186.303 288.398  0.00  0.00     0.093 N 
HETATM   17  C           1     172.401 185.355 287.694  0.00  0.00     0.273 C 
HETATM   18  C           1     172.893 185.100 286.270  0.00  0.00     0.035 C 
BRANCH  16  19
HETATM   19  C           1     172.811 186.383 289.759  0.00  0.00     0.223 C 
HETATM   20  C           1     171.356 185.956 289.873  0.00  0.00     0.036 C 
HETATM   21  C           1     171.208 185.380 291.281  0.00  0.00     0.002 C 
HETATM   22  C           1     172.622 185.242 291.840  0.00  0.00     0.002 C 
HETATM   23  C           1     173.541 185.381 290.637  0.00  0.00     0.036 C 
ENDBRANCH  16  19
ENDBRANCH  12  13
ENDBRANCH  11  12
ENDBRANCH   9  11
ENDBRANCH   8   9
ENDBRANCH   6   8
BRANCH   5  24
HETATM   24  S           1     172.064 187.770 283.269  0.00  0.00    -0.107 SA
BRANCH  24  25
HETATM   25  C           1     172.840 189.409 283.283  0.00  0.00     0.119 C 
BRANCH  25  26
HETATM   26  C           1     171.839 190.440 282.861  0.00  0.00    -0.049 A 
HETATM   27  C           1     172.207 191.444 281.965  0.00  0.00     0.008 A 
HETATM   28  C           1     171.274 192.405 281.573  0.00  0.00     0.001 A 
HETATM   29  C           1     169.973 192.360 282.076  0.00  0.00     0.000 A 
HETATM   30  C           1     169.606 191.356 282.972  0.00  0.00     0.001 A 
HETATM   31  C           1     170.539 190.396 283.364  0.00  0.00     0.008 A 
ENDBRANCH  25  26
ENDBRANCH  24  25
ENDBRANCH   5  24
BRANCH   1  32
HETATM   32  C           1     174.126 186.394 277.938  0.00  0.00    -0.024 A 
HETATM   33  C           1     175.401 186.803 277.548  0.00  0.00     0.015 A 
HETATM   34  C           1     175.871 186.498 276.271  0.00  0.00     0.037 A 
HETATM   35  C           1     175.065 185.786 275.383  0.00  0.00     0.068 A 
HETATM   36  C           1     173.789 185.377 275.772  0.00  0.00     0.037 A 
HETATM   37  C           1     173.320 185.681 277.050  0.00  0.00     0.015 A 
BRANCH  35  38
HETATM   38  O           1     175.521 185.490 274.141  0.00  0.00    -0.356 OA
HETATM   39  C           1     176.788 186.051 273.928  0.00  0.00     0.210 C 
ENDBRANCH  35  38
ENDBRANCH   1  32
TORSDOF 11
ENDMDL
MODEL 9
REMARK VINA RESULT:      -6.7      2.235      3.812
REMARK  11 active torsions:
REMARK  status: ('A' for Active; 'I' for Inactive)
REMARK    1  A    between atoms: C_1  and  C_19 
REMARK    2  A    between atoms: C_5  and  S_29 
REMARK    3  A    between atoms: C_6  and  C_8 
REMARK    4  A    between atoms: C_8  and  N_9 
REMARK    5  A    between atoms: N_9  and  C_10 
REMARK    6  A    between atoms: C_10  and  C_11 
REMARK    7  A    between atoms: C_11  and  C_12 
REMARK    8  A    between atoms: N_15  and  C_18 
REMARK    9  A    between atoms: C_22  and  O_37 
REMARK   10  A    between atoms: S_29  and  C_36 
REMARK   11  A    between atoms: C_30  and  C_36 
ROOT
HETATM    1  C           1     175.483 185.370 272.158  0.00  0.00    -0.010 A 
HETATM    2  C           1     176.295 184.892 271.141  0.00  0.00     0.101 A 
HETATM    3  N           1     175.880 184.717 269.867  0.00  0.00    -0.359 N 
ATOM      4  HN          1     176.506 184.364 269.143  1.00  0.00     0.166 HD
HETATM    5  C           1     174.594 185.034 269.600  0.00  0.00     0.077 A 
HETATM    6  C           1     173.707 185.517 270.549  0.00  0.00     0.004 A 
HETATM    7  C           1     174.164 185.687 271.852  0.00  0.00     0.025 A 
ENDROOT
BRANCH   6   8
HETATM    8  C           1     172.293 185.848 270.181  0.00  0.00     0.311 C 
BRANCH   8   9
HETATM    9  N           1     171.661 186.537 271.273  0.00  0.00     0.087 N 
HETATM   10  H           1     170.699 186.213 271.369  0.00  0.00     0.316 HD
BRANCH   9  11
HETATM   11  C           1     171.665 187.941 270.963  0.00  0.00     0.270 C 
BRANCH  11  12
HETATM   12  C           1     171.907 188.742 272.237  0.00  0.00     0.034 C 
BRANCH  12  13
HETATM   13  C           1     171.784 187.823 273.445  0.00  0.00    -0.010 C 
HETATM   14  C           1     172.902 188.144 274.434  0.00  0.00     0.035 C 
HETATM   15  C           1     172.712 187.388 275.748  0.00  0.00     0.273 C 
HETATM   16  N           1     171.398 187.653 276.334  0.00  0.00     0.093 N 
HETATM   17  C           1     170.319 187.276 275.420  0.00  0.00     0.273 C 
HETATM   18  C           1     170.420 188.027 274.095  0.00  0.00     0.035 C 
BRANCH  16  19
HETATM   19  C           1     171.304 186.810 277.494  0.00  0.00     0.223 C 
HETATM   20  C           1     172.372 185.728 277.470  0.00  0.00     0.036 C 
HETATM   21  C           1     172.670 185.414 278.936  0.00  0.00     0.002 C 
HETATM   22  C           1     171.974 186.497 279.757  0.00  0.00     0.002 C 
HETATM   23  C           1     171.621 187.589 278.759  0.00  0.00     0.036 C 
ENDBRANCH  16  19
ENDBRANCH  12  13
ENDBRANCH  11  12
ENDBRANCH   9  11
ENDBRANCH   8   9
ENDBRANCH   6   8
BRANCH   5  24
HETATM   24  S           1     173.994 184.814 267.902  0.00  0.00    -0.107 SA
BRANCH  24  25
HETATM   25  C           1     174.908 186.243 267.259  0.00  0.00     0.119 C 
BRANCH  25  26
HETATM   26  C           1     174.025 187.453 267.285  0.00  0.00    -0.049 A 
HETATM   27  C           1     172.745 187.394 266.734  0.00  0.00     0.008 A 
HETATM   28  C           1     171.923 188.521 266.757  0.00  0.00     0.001 A 
HETATM   29  C           1     172.381 189.707 267.332  0.00  0.00     0.000 A 
HETATM   30  C           1     173.661 189.766 267.883  0.00  0.00     0.001 A 
HETATM   31  C           1     174.483 188.638 267.859  0.00  0.00     0.008 A 
ENDBRANCH  25  26
ENDBRANCH  24  25
ENDBRANCH   5  24
BRANCH   1  32
HETATM   32  C           1     175.956 185.520 273.398  0.00  0.00    -0.024 A 
HETATM   33  C           1     177.135 186.234 273.615  0.00  0.00     0.015 A 
HETATM   34  C           1     177.628 186.391 274.909  0.00  0.00     0.037 A 
HETATM   35  C           1     176.944 185.833 275.989  0.00  0.00     0.068 A 
HETATM   36  C           1     175.764 185.119 275.773  0.00  0.00     0.037 A 
HETATM   37  C           1     175.271 184.963 274.479  0.00  0.00     0.015 A 
BRANCH  35  38
HETATM   38  O           1     177.423 185.985 277.247  0.00  0.00    -0.356 OA
HETATM   39  C           1     178.652 185.326 277.396  0.00  0.00     0.210 C 
ENDBRANCH  35  38
ENDBRANCH   1  32
TORSDOF 11
ENDMDL
