MODEL 1
REMARK VINA RESULT:      -6.4      0.000      0.000
REMARK  10 active torsions:
REMARK  status: ('A' for Active; 'I' for Inactive)
REMARK    1  A    between atoms: C_4  and  S_16 
REMARK    2  A    between atoms: C_5  and  C_7 
REMARK    3  A    between atoms: C_7  and  N_8 
REMARK    4  A    between atoms: N_8  and  C_9 
REMARK    5  A    between atoms: C_9  and  C_10 
REMARK    6  A    between atoms: C_10  and  C_11 
REMARK    7  A    between atoms: C_11  and  C_12 
REMARK    8  A    between atoms: C_12  and  N_13 
REMARK    9  A    between atoms: S_16  and  C_23 
REMARK   10  A    between atoms: C_17  and  C_23 
ROOT
HETATM    1  C           1     174.965 184.732 284.896  0.00  0.00     0.020 A 
HETATM    2  C           1     174.637 184.320 286.178  0.00  0.00     0.118 A 
HETATM    3  N           1     173.658 184.880 286.920  0.00  0.00    -0.254 NA
HETATM    4  C           1     172.976 185.899 286.352  0.00  0.00     0.101 A 
HETATM    5  C           1     173.230 186.381 285.078  0.00  0.00     0.005 A 
HETATM    6  C           1     174.245 185.784 284.339  0.00  0.00     0.013 A 
ENDROOT
BRANCH   5   7
HETATM    7  C           1     172.433 187.516 284.513  0.00  0.00     0.308 C 
BRANCH   7   8
HETATM    8  N           1     173.289 188.655 284.322  0.00  0.00     0.087 N 
HETATM    9  H           1     173.228 189.266 285.135  0.00  0.00     0.316 HD
BRANCH   8  10
HETATM   10  C           1     172.826 189.359 283.157  0.00  0.00     0.270 C 
BRANCH  10  11
HETATM   11  C           1     173.958 189.469 282.145  0.00  0.00     0.032 C 
BRANCH  11  12
HETATM   12  C           1     173.977 188.226 281.264  0.00  0.00     0.032 C 
BRANCH  12  13
HETATM   13  C           1     172.606 188.031 280.632  0.00  0.00     0.271 C 
BRANCH  13  14
HETATM   14  N           1     172.283 186.629 280.607  0.00  0.00     0.080 N 
HETATM   15  C           1     171.752 186.325 279.306  0.00  0.00     0.309 C 
HETATM   16  C           1     173.511 185.897 280.761  0.00  0.00     0.309 C 
ENDBRANCH  13  14
ENDBRANCH  12  13
ENDBRANCH  11  12
ENDBRANCH  10  11
ENDBRANCH   8  10
ENDBRANCH   7   8
ENDBRANCH   5   7
BRANCH   4  17
HETATM   17  S           1     171.651 186.682 287.314  0.00  0.00    -0.105 SA
BRANCH  17  18
HETATM   18  C           1     172.796 187.544 288.428  0.00  0.00     0.122 C 
BRANCH  18  19
HETATM   19  C           1     172.501 187.160 289.844  0.00  0.00    -0.049 A 
HETATM   20  C           1     171.759 188.016 290.659  0.00  0.00     0.008 A 
HETATM   21  C           1     171.484 187.658 291.978  0.00  0.00     0.001 A 
HETATM   22  C           1     171.950 186.445 292.484  0.00  0.00     0.000 A 
HETATM   23  C           1     172.693 185.589 291.670  0.00  0.00     0.001 A 
HETATM   24  C           1     172.968 185.947 290.350  0.00  0.00     0.008 A 
ENDBRANCH  18  19
ENDBRANCH  17  18
ENDBRANCH   4  17
TORSDOF 10
ENDMDL
MODEL 2
REMARK VINA RESULT:      -6.3      3.265      5.736
REMARK  10 active torsions:
REMARK  status: ('A' for Active; 'I' for Inactive)
REMARK    1  A    between atoms: C_4  and  S_16 
REMARK    2  A    between atoms: C_5  and  C_7 
REMARK    3  A    between atoms: C_7  and  N_8 
REMARK    4  A    between atoms: N_8  and  C_9 
REMARK    5  A    between atoms: C_9  and  C_10 
REMARK    6  A    between atoms: C_10  and  C_11 
REMARK    7  A    between atoms: C_11  and  C_12 
REMARK    8  A    between atoms: C_12  and  N_13 
REMARK    9  A    between atoms: S_16  and  C_23 
REMARK   10  A    between atoms: C_17  and  C_23 
ROOT
HETATM    1  C           1     172.852 189.538 282.367  0.00  0.00     0.020 A 
HETATM    2  C           1     173.630 189.245 283.475  0.00  0.00     0.118 A 
HETATM    3  N           1     174.505 188.218 283.529  0.00  0.00    -0.254 NA
HETATM    4  C           1     174.604 187.449 282.422  0.00  0.00     0.101 A 
HETATM    5  C           1     173.869 187.662 281.267  0.00  0.00     0.005 A 
HETATM    6  C           1     172.976 188.728 281.243  0.00  0.00     0.013 A 
ENDROOT
BRANCH   5   7
HETATM    7  C           1     174.031 186.767 280.077  0.00  0.00     0.308 C 
BRANCH   7   8
HETATM    8  N           1     172.860 185.946 279.932  0.00  0.00     0.087 N 
HETATM    9  H           1     172.958 185.110 280.507  0.00  0.00     0.316 HD
BRANCH   8  10
HETATM   10  C           1     172.761 185.567 278.549  0.00  0.00     0.270 C 
BRANCH  10  11
HETATM   11  C           1     173.765 186.366 277.729  0.00  0.00     0.032 C 
BRANCH  11  12
HETATM   12  C           1     174.248 185.524 276.555  0.00  0.00     0.032 C 
BRANCH  12  13
HETATM   13  C           1     175.211 186.342 275.705  0.00  0.00     0.271 C 
BRANCH  13  14
HETATM   14  N           1     176.465 186.479 276.397  0.00  0.00     0.080 N 
HETATM   15  C           1     177.143 185.213 276.325  0.00  0.00     0.309 C 
HETATM   16  C           1     177.257 187.441 275.679  0.00  0.00     0.309 C 
ENDBRANCH  13  14
ENDBRANCH  12  13
ENDBRANCH  11  12
ENDBRANCH  10  11
ENDBRANCH   8  10
ENDBRANCH   7   8
ENDBRANCH   5   7
BRANCH   4  17
HETATM   17  S           1     175.768 186.056 282.451  0.00  0.00    -0.105 SA
BRANCH  17  18
HETATM   18  C           1     174.471 184.814 282.722  0.00  0.00     0.122 C 
BRANCH  18  19
HETATM   19  C           1     174.011 184.875 284.144  0.00  0.00    -0.049 A 
HETATM   20  C           1     172.678 185.164 284.435  0.00  0.00     0.008 A 
HETATM   21  C           1     172.249 185.221 285.760  0.00  0.00     0.001 A 
HETATM   22  C           1     173.153 184.989 286.797  0.00  0.00     0.000 A 
HETATM   23  C           1     174.487 184.700 286.507  0.00  0.00     0.001 A 
HETATM   24  C           1     174.915 184.643 285.180  0.00  0.00     0.008 A 
ENDBRANCH  18  19
ENDBRANCH  17  18
ENDBRANCH   4  17
TORSDOF 10
ENDMDL
MODEL 3
REMARK VINA RESULT:      -6.2      3.210      9.611
REMARK  10 active torsions:
REMARK  status: ('A' for Active; 'I' for Inactive)
REMARK    1  A    between atoms: C_4  and  S_16 
REMARK    2  A    between atoms: C_5  and  C_7 
REMARK    3  A    between atoms: C_7  and  N_8 
REMARK    4  A    between atoms: N_8  and  C_9 
REMARK    5  A    between atoms: C_9  and  C_10 
REMARK    6  A    between atoms: C_10  and  C_11 
REMARK    7  A    between atoms: C_11  and  C_12 
REMARK    8  A    between atoms: C_12  and  N_13 
REMARK    9  A    between atoms: S_16  and  C_23 
REMARK   10  A    between atoms: C_17  and  C_23 
ROOT
HETATM    1  C           1     172.981 189.961 281.747  0.00  0.00     0.020 A 
HETATM    2  C           1     171.873 189.552 281.022  0.00  0.00     0.118 A 
HETATM    3  N           1     171.810 188.389 280.337  0.00  0.00    -0.254 NA
HETATM    4  C           1     172.908 187.601 280.381  0.00  0.00     0.101 A 
HETATM    5  C           1     174.061 187.924 281.078  0.00  0.00     0.005 A 
HETATM    6  C           1     174.095 189.129 281.772  0.00  0.00     0.013 A 
ENDROOT
BRANCH   5   7
HETATM    7  C           1     175.241 187.002 281.081  0.00  0.00     0.308 C 
BRANCH   7   8
HETATM    8  N           1     175.747 186.875 282.421  0.00  0.00     0.087 N 
HETATM    9  H           1     176.717 187.187 282.449  0.00  0.00     0.316 HD
BRANCH   8  10
HETATM   10  C           1     175.681 185.485 282.783  0.00  0.00     0.270 C 
BRANCH  10  11
HETATM   11  C           1     174.418 185.230 283.595  0.00  0.00     0.032 C 
BRANCH  11  12
HETATM   12  C           1     174.787 184.572 284.918  0.00  0.00     0.032 C 
BRANCH  12  13
HETATM   13  C           1     173.741 184.920 285.968  0.00  0.00     0.271 C 
BRANCH  13  14
HETATM   14  N           1     174.310 185.825 286.931  0.00  0.00     0.080 N 
HETATM   15  C           1     173.624 185.623 288.178  0.00  0.00     0.309 C 
HETATM   16  C           1     175.685 185.450 287.122  0.00  0.00     0.309 C 
ENDBRANCH  13  14
ENDBRANCH  12  13
ENDBRANCH  11  12
ENDBRANCH  10  11
ENDBRANCH   8  10
ENDBRANCH   7   8
ENDBRANCH   5   7
BRANCH   4  17
HETATM   17  S           1     172.867 186.030 279.474  0.00  0.00    -0.105 SA
BRANCH  17  18
HETATM   18  C           1     172.921 186.824 277.843  0.00  0.00     0.122 C 
BRANCH  18  19
HETATM   19  C           1     174.123 186.345 277.093  0.00  0.00    -0.049 A 
HETATM   20  C           1     175.393 186.802 277.444  0.00  0.00     0.008 A 
HETATM   21  C           1     176.514 186.355 276.744  0.00  0.00     0.001 A 
HETATM   22  C           1     176.366 185.451 275.693  0.00  0.00     0.000 A 
HETATM   23  C           1     175.095 184.993 275.341  0.00  0.00     0.001 A 
HETATM   24  C           1     173.975 185.441 276.041  0.00  0.00     0.008 A 
ENDBRANCH  18  19
ENDBRANCH  17  18
ENDBRANCH   4  17
TORSDOF 10
ENDMDL
MODEL 4
REMARK VINA RESULT:      -6.1      2.207      3.944
REMARK  10 active torsions:
REMARK  status: ('A' for Active; 'I' for Inactive)
REMARK    1  A    between atoms: C_4  and  S_16 
REMARK    2  A    between atoms: C_5  and  C_7 
REMARK    3  A    between atoms: C_7  and  N_8 
REMARK    4  A    between atoms: N_8  and  C_9 
REMARK    5  A    between atoms: C_9  and  C_10 
REMARK    6  A    between atoms: C_10  and  C_11 
REMARK    7  A    between atoms: C_11  and  C_12 
REMARK    8  A    between atoms: C_12  and  N_13 
REMARK    9  A    between atoms: S_16  and  C_23 
REMARK   10  A    between atoms: C_17  and  C_23 
ROOT
HETATM    1  C           1     170.901 188.366 286.426  0.00  0.00     0.020 A 
HETATM    2  C           1     169.699 188.295 287.111  0.00  0.00     0.118 A 
HETATM    3  N           1     169.308 187.223 287.835  0.00  0.00    -0.254 NA
HETATM    4  C           1     170.162 186.176 287.874  0.00  0.00     0.101 A 
HETATM    5  C           1     171.384 186.154 287.222  0.00  0.00     0.005 A 
HETATM    6  C           1     171.757 187.272 286.484  0.00  0.00     0.013 A 
ENDROOT
BRANCH   5   7
HETATM    7  C           1     172.280 184.956 287.309  0.00  0.00     0.308 C 
BRANCH   7   8
HETATM    8  N           1     173.653 185.383 287.311  0.00  0.00     0.087 N 
HETATM    9  H           1     173.705 186.361 287.027  0.00  0.00     0.316 HD
BRANCH   8  10
HETATM   10  C           1     174.364 184.570 286.362  0.00  0.00     0.270 C 
BRANCH  10  11
HETATM   11  C           1     174.921 185.453 285.253  0.00  0.00     0.032 C 
BRANCH  11  12
HETATM   12  C           1     174.490 184.903 283.899  0.00  0.00     0.032 C 
BRANCH  12  13
HETATM   13  C           1     173.012 185.193 283.680  0.00  0.00     0.271 C 
BRANCH  13  14
HETATM   14  N           1     172.846 185.964 282.477  0.00  0.00     0.080 N 
HETATM   15  C           1     172.700 187.342 282.857  0.00  0.00     0.309 C 
HETATM   16  C           1     174.060 185.847 281.714  0.00  0.00     0.309 C 
ENDBRANCH  13  14
ENDBRANCH  12  13
ENDBRANCH  11  12
ENDBRANCH  10  11
ENDBRANCH   8  10
ENDBRANCH   7   8
ENDBRANCH   5   7
BRANCH   4  17
HETATM   17  S           1     169.677 184.714 288.835  0.00  0.00    -0.105 SA
BRANCH  17  18
HETATM   18  C           1     168.991 185.687 290.206  0.00  0.00     0.122 C 
BRANCH  18  19
HETATM   19  C           1     170.067 185.966 291.208  0.00  0.00    -0.049 A 
HETATM   20  C           1     171.290 185.300 291.122  0.00  0.00     0.008 A 
HETATM   21  C           1     172.292 185.560 292.056  0.00  0.00     0.001 A 
HETATM   22  C           1     172.073 186.485 293.077  0.00  0.00     0.000 A 
HETATM   23  C           1     170.849 187.150 293.164  0.00  0.00     0.001 A 
HETATM   24  C           1     169.847 186.890 292.229  0.00  0.00     0.008 A 
ENDBRANCH  18  19
ENDBRANCH  17  18
ENDBRANCH   4  17
TORSDOF 10
ENDMDL
MODEL 5
REMARK VINA RESULT:      -6.0     11.858     15.410
REMARK  10 active torsions:
REMARK  status: ('A' for Active; 'I' for Inactive)
REMARK    1  A    between atoms: C_4  and  S_16 
REMARK    2  A    between atoms: C_5  and  C_7 
REMARK    3  A    between atoms: C_7  and  N_8 
REMARK    4  A    between atoms: N_8  and  C_9 
REMARK    5  A    between atoms: C_9  and  C_10 
REMARK    6  A    between atoms: C_10  and  C_11 
REMARK    7  A    between atoms: C_11  and  C_12 
REMARK    8  A    between atoms: C_12  and  N_13 
REMARK    9  A    between atoms: S_16  and  C_23 
REMARK   10  A    between atoms: C_17  and  C_23 
ROOT
HETATM    1  C           1     176.063 182.915 268.464  0.00  0.00     0.020 A 
HETATM    2  C           1     175.867 182.474 269.763  0.00  0.00     0.118 A 
HETATM    3  N           1     175.480 183.275 270.779  0.00  0.00    -0.254 NA
HETATM    4  C           1     175.280 184.577 270.480  0.00  0.00     0.101 A 
HETATM    5  C           1     175.450 185.112 269.213  0.00  0.00     0.005 A 
HETATM    6  C           1     175.849 184.262 268.188  0.00  0.00     0.013 A 
ENDROOT
BRANCH   5   7
HETATM    7  C           1     175.210 186.568 268.955  0.00  0.00     0.308 C 
BRANCH   7   8
HETATM    8  N           1     174.968 186.773 267.553  0.00  0.00     0.087 N 
HETATM    9  H           1     175.842 187.020 267.089  0.00  0.00     0.316 HD
BRANCH   8  10
HETATM   10  C           1     174.034 187.859 267.425  0.00  0.00     0.270 C 
BRANCH  10  11
HETATM   11  C           1     174.755 189.180 267.658  0.00  0.00     0.032 C 
BRANCH  11  12
HETATM   12  C           1     173.789 190.188 268.266  0.00  0.00     0.032 C 
BRANCH  12  13
HETATM   13  C           1     173.981 190.230 269.776  0.00  0.00     0.271 C 
BRANCH  13  14
HETATM   14  N           1     175.385 190.312 270.079  0.00  0.00     0.080 N 
HETATM   15  C           1     175.676 191.673 270.439  0.00  0.00     0.309 C 
HETATM   16  C           1     175.631 189.491 271.234  0.00  0.00     0.309 C 
ENDBRANCH  13  14
ENDBRANCH  12  13
ENDBRANCH  11  12
ENDBRANCH  10  11
ENDBRANCH   8  10
ENDBRANCH   7   8
ENDBRANCH   5   7
BRANCH   4  17
HETATM   17  S           1     174.759 185.690 271.816  0.00  0.00    -0.105 SA
BRANCH  17  18
HETATM   18  C           1     176.458 186.072 272.331  0.00  0.00     0.122 C 
BRANCH  18  19
HETATM   19  C           1     176.595 185.850 273.804  0.00  0.00    -0.049 A 
HETATM   20  C           1     177.729 186.304 274.476  0.00  0.00     0.008 A 
HETATM   21  C           1     177.857 186.097 275.849  0.00  0.00     0.001 A 
HETATM   22  C           1     176.851 185.434 276.552  0.00  0.00     0.000 A 
HETATM   23  C           1     175.716 184.978 275.880  0.00  0.00     0.001 A 
HETATM   24  C           1     175.589 185.186 274.506  0.00  0.00     0.008 A 
ENDBRANCH  18  19
ENDBRANCH  17  18
ENDBRANCH   4  17
TORSDOF 10
ENDMDL
MODEL 6
REMARK VINA RESULT:      -5.8      2.149      3.842
REMARK  10 active torsions:
REMARK  status: ('A' for Active; 'I' for Inactive)
REMARK    1  A    between atoms: C_4  and  S_16 
REMARK    2  A    between atoms: C_5  and  C_7 
REMARK    3  A    between atoms: C_7  and  N_8 
REMARK    4  A    between atoms: N_8  and  C_9 
REMARK    5  A    between atoms: C_9  and  C_10 
REMARK    6  A    between atoms: C_10  and  C_11 
REMARK    7  A    between atoms: C_11  and  C_12 
REMARK    8  A    between atoms: C_12  and  N_13 
REMARK    9  A    between atoms: S_16  and  C_23 
REMARK   10  A    between atoms: C_17  and  C_23 
ROOT
HETATM    1  C           1     170.847 187.910 286.545  0.00  0.00     0.020 A 
HETATM    2  C           1     170.398 188.355 287.779  0.00  0.00     0.118 A 
HETATM    3  N           1     170.954 187.995 288.956  0.00  0.00    -0.254 NA
HETATM    4  C           1     172.007 187.150 288.895  0.00  0.00     0.101 A 
HETATM    5  C           1     172.527 186.652 287.712  0.00  0.00     0.005 A 
HETATM    6  C           1     171.933 187.041 286.516  0.00  0.00     0.013 A 
ENDROOT
BRANCH   5   7
HETATM    7  C           1     173.697 185.717 287.720  0.00  0.00     0.308 C 
BRANCH   7   8
HETATM    8  N           1     173.707 184.949 286.505  0.00  0.00     0.087 N 
HETATM    9  H           1     173.637 183.957 286.729  0.00  0.00     0.316 HD
BRANCH   8  10
HETATM   10  C           1     174.955 185.203 285.837  0.00  0.00     0.270 C 
BRANCH  10  11
HETATM   11  C           1     174.885 184.674 284.411  0.00  0.00     0.032 C 
BRANCH  11  12
HETATM   12  C           1     173.639 185.220 283.725  0.00  0.00     0.032 C 
BRANCH  12  13
HETATM   13  C           1     173.948 186.581 283.118  0.00  0.00     0.271 C 
BRANCH  13  14
HETATM   14  N           1     173.996 186.468 281.684  0.00  0.00     0.080 N 
HETATM   15  C           1     172.644 186.348 281.210  0.00  0.00     0.309 C 
HETATM   16  C           1     174.534 187.697 281.168  0.00  0.00     0.309 C 
ENDBRANCH  13  14
ENDBRANCH  12  13
ENDBRANCH  11  12
ENDBRANCH  10  11
ENDBRANCH   8  10
ENDBRANCH   7   8
ENDBRANCH   5   7
BRANCH   4  17
HETATM   17  S           1     172.784 186.639 290.453  0.00  0.00    -0.105 SA
BRANCH  17  18
HETATM   18  C           1     171.482 185.440 290.856  0.00  0.00     0.122 C 
BRANCH  18  19
HETATM   19  C           1     170.506 186.062 291.805  0.00  0.00    -0.049 A 
HETATM   20  C           1     169.147 186.090 291.491  0.00  0.00     0.008 A 
HETATM   21  C           1     168.238 186.670 292.375  0.00  0.00     0.001 A 
HETATM   22  C           1     168.686 187.223 293.574  0.00  0.00     0.000 A 
HETATM   23  C           1     170.046 187.197 293.888  0.00  0.00     0.001 A 
HETATM   24  C           1     170.955 186.617 293.004  0.00  0.00     0.008 A 
ENDBRANCH  18  19
ENDBRANCH  17  18
ENDBRANCH   4  17
TORSDOF 10
ENDMDL
MODEL 7
REMARK VINA RESULT:      -5.8     11.594     14.664
REMARK  10 active torsions:
REMARK  status: ('A' for Active; 'I' for Inactive)
REMARK    1  A    between atoms: C_4  and  S_16 
REMARK    2  A    between atoms: C_5  and  C_7 
REMARK    3  A    between atoms: C_7  and  N_8 
REMARK    4  A    between atoms: N_8  and  C_9 
REMARK    5  A    between atoms: C_9  and  C_10 
REMARK    6  A    between atoms: C_10  and  C_11 
REMARK    7  A    between atoms: C_11  and  C_12 
REMARK    8  A    between atoms: C_12  and  N_13 
REMARK    9  A    between atoms: S_16  and  C_23 
REMARK   10  A    between atoms: C_17  and  C_23 
ROOT
HETATM    1  C           1     174.899 187.878 267.948  0.00  0.00     0.020 A 
HETATM    2  C           1     174.451 186.668 268.452  0.00  0.00     0.118 A 
HETATM    3  N           1     174.242 186.431 269.765  0.00  0.00    -0.254 NA
HETATM    4  C           1     174.493 187.454 270.611  0.00  0.00     0.101 A 
HETATM    5  C           1     174.942 188.699 270.203  0.00  0.00     0.005 A 
HETATM    6  C           1     175.149 188.912 268.845  0.00  0.00     0.013 A 
ENDROOT
BRANCH   5   7
HETATM    7  C           1     175.200 189.788 271.199  0.00  0.00     0.308 C 
BRANCH   7   8
HETATM    8  N           1     176.216 190.670 270.694  0.00  0.00     0.087 N 
HETATM    9  H           1     177.035 190.627 271.299  0.00  0.00     0.316 HD
BRANCH   8  10
HETATM   10  C           1     175.682 192.005 270.706  0.00  0.00     0.270 C 
BRANCH  10  11
HETATM   11  C           1     174.348 192.012 271.441  0.00  0.00     0.032 C 
BRANCH  11  12
HETATM   12  C           1     174.406 193.009 272.591  0.00  0.00     0.032 C 
BRANCH  12  13
HETATM   13  C           1     173.445 192.575 273.689  0.00  0.00     0.271 C 
BRANCH  13  14
HETATM   14  N           1     174.088 192.704 274.969  0.00  0.00     0.080 N 
HETATM   15  C           1     175.090 193.728 274.854  0.00  0.00     0.309 C 
HETATM   16  C           1     173.100 193.162 275.909  0.00  0.00     0.309 C 
ENDBRANCH  13  14
ENDBRANCH  12  13
ENDBRANCH  11  12
ENDBRANCH  10  11
ENDBRANCH   8  10
ENDBRANCH   7   8
ENDBRANCH   5   7
BRANCH   4  17
HETATM   17  S           1     174.225 187.180 272.385  0.00  0.00    -0.105 SA
BRANCH  17  18
HETATM   18  C           1     175.294 185.713 272.449  0.00  0.00     0.122 C 
BRANCH  18  19
HETATM   19  C           1     176.045 185.698 273.742  0.00  0.00    -0.049 A 
HETATM   20  C           1     175.484 185.098 274.869  0.00  0.00     0.008 A 
HETATM   21  C           1     176.184 185.084 276.075  0.00  0.00     0.001 A 
HETATM   22  C           1     177.447 185.671 276.155  0.00  0.00     0.000 A 
HETATM   23  C           1     178.009 186.273 275.028  0.00  0.00     0.001 A 
HETATM   24  C           1     177.308 186.286 273.822  0.00  0.00     0.008 A 
ENDBRANCH  18  19
ENDBRANCH  17  18
ENDBRANCH   4  17
TORSDOF 10
ENDMDL
MODEL 8
REMARK VINA RESULT:      -5.8      6.723     12.985
REMARK  10 active torsions:
REMARK  status: ('A' for Active; 'I' for Inactive)
REMARK    1  A    between atoms: C_4  and  S_16 
REMARK    2  A    between atoms: C_5  and  C_7 
REMARK    3  A    between atoms: C_7  and  N_8 
REMARK    4  A    between atoms: N_8  and  C_9 
REMARK    5  A    between atoms: C_9  and  C_10 
REMARK    6  A    between atoms: C_10  and  C_11 
REMARK    7  A    between atoms: C_11  and  C_12 
REMARK    8  A    between atoms: C_12  and  N_13 
REMARK    9  A    between atoms: S_16  and  C_23 
REMARK   10  A    between atoms: C_17  and  C_23 
ROOT
HETATM    1  C           1     177.588 185.465 276.008  0.00  0.00     0.020 A 
HETATM    2  C           1     177.968 186.396 275.054  0.00  0.00     0.118 A 
HETATM    3  N           1     177.096 187.077 274.280  0.00  0.00    -0.254 NA
HETATM    4  C           1     175.784 186.812 274.469  0.00  0.00     0.101 A 
HETATM    5  C           1     175.308 185.900 275.396  0.00  0.00     0.005 A 
HETATM    6  C           1     176.231 185.214 276.179  0.00  0.00     0.013 A 
ENDROOT
BRANCH   5   7
HETATM    7  C           1     173.838 185.657 275.551  0.00  0.00     0.308 C 
BRANCH   7   8
HETATM    8  N           1     173.552 185.297 276.913  0.00  0.00     0.087 N 
HETATM    9  H           1     172.863 184.546 276.929  0.00  0.00     0.316 HD
BRANCH   8  10
HETATM   10  C           1     173.012 186.457 277.567  0.00  0.00     0.270 C 
BRANCH  10  11
HETATM   11  C           1     172.257 186.031 278.819  0.00  0.00     0.032 C 
BRANCH  11  12
HETATM   12  C           1     173.193 186.082 280.020  0.00  0.00     0.032 C 
BRANCH  12  13
HETATM   13  C           1     174.249 187.155 279.796  0.00  0.00     0.271 C 
BRANCH  13  14
HETATM   14  N           1     174.861 187.497 281.052  0.00  0.00     0.080 N 
HETATM   15  C           1     174.136 188.609 281.603  0.00  0.00     0.309 C 
HETATM   16  C           1     174.688 186.379 281.940  0.00  0.00     0.309 C 
ENDBRANCH  13  14
ENDBRANCH  12  13
ENDBRANCH  11  12
ENDBRANCH  10  11
ENDBRANCH   8  10
ENDBRANCH   7   8
ENDBRANCH   5   7
BRANCH   4  17
HETATM   17  S           1     174.577 187.704 273.448  0.00  0.00    -0.105 SA
BRANCH  17  18
HETATM   18  C           1     175.328 187.183 271.880  0.00  0.00     0.122 C 
BRANCH  18  19
HETATM   19  C           1     175.071 185.724 271.664  0.00  0.00    -0.049 A 
HETATM   20  C           1     173.788 185.208 271.841  0.00  0.00     0.008 A 
HETATM   21  C           1     173.549 183.849 271.640  0.00  0.00     0.001 A 
HETATM   22  C           1     174.593 183.005 271.261  0.00  0.00     0.000 A 
HETATM   23  C           1     175.877 183.521 271.084  0.00  0.00     0.001 A 
HETATM   24  C           1     176.116 184.881 271.286  0.00  0.00     0.008 A 
ENDBRANCH  18  19
ENDBRANCH  17  18
ENDBRANCH   4  17
TORSDOF 10
ENDMDL
MODEL 9
REMARK VINA RESULT:      -5.7      4.281      7.355
REMARK  10 active torsions:
REMARK  status: ('A' for Active; 'I' for Inactive)
REMARK    1  A    between atoms: C_4  and  S_16 
REMARK    2  A    between atoms: C_5  and  C_7 
REMARK    3  A    between atoms: C_7  and  N_8 
REMARK    4  A    between atoms: N_8  and  C_9 
REMARK    5  A    between atoms: C_9  and  C_10 
REMARK    6  A    between atoms: C_10  and  C_11 
REMARK    7  A    between atoms: C_11  and  C_12 
REMARK    8  A    between atoms: C_12  and  N_13 
REMARK    9  A    between atoms: S_16  and  C_23 
REMARK   10  A    between atoms: C_17  and  C_23 
ROOT
HETATM    1  C           1     171.616 186.506 277.668  0.00  0.00     0.020 A 
HETATM    2  C           1     171.108 186.461 278.957  0.00  0.00     0.118 A 
HETATM    3  N           1     171.870 186.534 280.069  0.00  0.00    -0.254 NA
HETATM    4  C           1     173.203 186.659 279.881  0.00  0.00     0.101 A 
HETATM    5  C           1     173.804 186.713 278.634  0.00  0.00     0.005 A 
HETATM    6  C           1     172.992 186.634 277.508  0.00  0.00     0.013 A 
ENDROOT
BRANCH   5   7
HETATM    7  C           1     175.289 186.851 278.502  0.00  0.00     0.308 C 
BRANCH   7   8
HETATM    8  N           1     175.648 186.864 277.110  0.00  0.00     0.087 N 
HETATM    9  H           1     175.083 186.180 276.607  0.00  0.00     0.316 HD
BRANCH   8  10
HETATM   10  C           1     177.036 186.502 277.013  0.00  0.00     0.270 C 
BRANCH  10  11
HETATM   11  C           1     177.201 185.384 275.992  0.00  0.00     0.032 C 
BRANCH  11  12
HETATM   12  C           1     175.917 185.238 275.185  0.00  0.00     0.032 C 
BRANCH  12  13
HETATM   13  C           1     176.181 185.620 273.736  0.00  0.00     0.271 C 
BRANCH  13  14
HETATM   14  N           1     175.028 185.300 272.937  0.00  0.00     0.080 N 
HETATM   15  C           1     173.859 185.576 273.727  0.00  0.00     0.309 C 
HETATM   16  C           1     175.016 186.194 271.810  0.00  0.00     0.309 C 
ENDBRANCH  13  14
ENDBRANCH  12  13
ENDBRANCH  11  12
ENDBRANCH  10  11
ENDBRANCH   8  10
ENDBRANCH   7   8
ENDBRANCH   5   7
BRANCH   4  17
HETATM   17  S           1     174.266 186.761 281.349  0.00  0.00    -0.105 SA
BRANCH  17  18
HETATM   18  C           1     173.859 185.085 281.916  0.00  0.00     0.122 C 
BRANCH  18  19
HETATM   19  C           1     173.773 185.071 283.410  0.00  0.00    -0.049 A 
HETATM   20  C           1     174.918 184.846 284.173  0.00  0.00     0.008 A 
HETATM   21  C           1     174.838 184.832 285.565  0.00  0.00     0.001 A 
HETATM   22  C           1     173.612 185.043 286.196  0.00  0.00     0.000 A 
HETATM   23  C           1     172.465 185.268 285.433  0.00  0.00     0.001 A 
HETATM   24  C           1     172.546 185.281 284.040  0.00  0.00     0.008 A 
ENDBRANCH  18  19
ENDBRANCH  17  18
ENDBRANCH   4  17
TORSDOF 10
ENDMDL
