MODEL 1
REMARK VINA RESULT:      -8.8      0.000      0.000
REMARK  10 active torsions:
REMARK  status: ('A' for Active; 'I' for Inactive)
REMARK    1  A    between atoms: C3_3  and  C4_4 
REMARK    2  A    between atoms: C13_14  and  S1_15 
REMARK    3  A    between atoms: S1_15  and  C14_16 
REMARK    4  A    between atoms: C14_16  and  C15_17 
REMARK    5  A    between atoms: C21_23  and  C22_24 
REMARK    6  A    between atoms: C22_24  and  N2_25 
REMARK    7  A    between atoms: N2_25  and  C23_26 
REMARK    8  A    between atoms: C23_26  and  C24_27 
REMARK    9  A    between atoms: C24_27  and  C25_28 
REMARK   10  A    between atoms: N3_31  and  C28_32 
ROOT
HETATM    1  C1  UNL     1     172.779 186.333 280.646  1.00  0.00    -0.006 A 
HETATM    2  C2  UNL     1     172.697 185.978 282.000  1.00  0.00     0.026 A 
HETATM    3  C3  UNL     1     173.863 185.839 282.774  1.00  0.00    -0.025 A 
HETATM    4  C10 UNL     1     175.116 186.047 282.166  1.00  0.00     0.014 A 
HETATM    5  C11 UNL     1     175.201 186.388 280.813  1.00  0.00     0.033 A 
HETATM    6  C12 UNL     1     174.038 186.531 280.051  1.00  0.00     0.068 A 
HETATM    7  N1  UNL     1     174.121 186.867 278.739  1.00  0.00    -0.241 NA
HETATM    8  C13 UNL     1     173.018 187.034 277.958  1.00  0.00     0.102 A 
HETATM    9  C21 UNL     1     171.730 186.811 278.502  1.00  0.00     0.006 A 
HETATM   10  C35 UNL     1     171.629 186.473 279.862  1.00  0.00     0.025 A 
ENDROOT
BRANCH   9  11
HETATM   11  C22 UNL     1     170.474 186.806 277.649  1.00  0.00     0.311 C 
BRANCH  11  12
HETATM   12  N2  UNL     1     169.234 186.986 278.420  1.00  0.00     0.087 N 
HETATM   13  H18 UNL     1     168.566 186.222 278.176  1.00  0.00     0.316 HD
BRANCH  12  14
HETATM   14  C23 UNL     1     168.570 188.278 278.195  1.00  0.00     0.270 C 
BRANCH  14  15
HETATM   15  C24 UNL     1     169.558 189.451 278.295  1.00  0.00     0.034 C 
BRANCH  15  16
HETATM   16  C25 UNL     1     168.972 190.663 279.067  1.00  0.00    -0.010 C 
HETATM   17  C26 UNL     1     169.958 191.842 279.180  1.00  0.00     0.035 C 
HETATM   18  C27 UNL     1     171.169 191.505 280.074  1.00  0.00     0.273 C 
HETATM   19  N3  UNL     1     170.893 190.426 281.062  1.00  0.00     0.093 N 
HETATM   20  C33 UNL     1     169.515 190.553 281.585  1.00  0.00     0.273 C 
HETATM   21  C34 UNL     1     168.487 190.246 280.479  1.00  0.00     0.035 C 
BRANCH  19  22
HETATM   22  C28 UNL     1     171.893 190.441 282.164  1.00  0.00     0.223 C 
HETATM   23  C29 UNL     1     171.555 189.434 283.266  1.00  0.00     0.036 C 
HETATM   24  C30 UNL     1     172.883 189.033 283.901  1.00  0.00     0.002 C 
HETATM   25  C31 UNL     1     173.980 189.431 282.920  1.00  0.00     0.002 C 
HETATM   26  C32 UNL     1     173.278 189.992 281.695  1.00  0.00     0.036 C 
ENDBRANCH  19  22
ENDBRANCH  15  16
ENDBRANCH  14  15
ENDBRANCH  12  14
ENDBRANCH  11  12
ENDBRANCH   9  11
BRANCH   8  27
HETATM   27  S1  UNL     1     173.259 187.517 276.239  1.00  0.00    -0.105 SA
BRANCH  27  28
HETATM   28  C14 UNL     1     173.927 185.903 275.682  1.00  0.00     0.119 C 
BRANCH  28  29
HETATM   29  C15 UNL     1     175.400 185.963 275.376  1.00  0.00    -0.049 A 
HETATM   30  C16 UNL     1     176.344 185.700 276.384  1.00  0.00     0.008 A 
HETATM   31  C17 UNL     1     177.712 185.807 276.113  1.00  0.00     0.001 A 
HETATM   32  C18 UNL     1     178.148 186.174 274.836  1.00  0.00     0.000 A 
HETATM   33  C19 UNL     1     177.216 186.438 273.829  1.00  0.00     0.001 A 
HETATM   34  C20 UNL     1     175.847 186.342 274.098  1.00  0.00     0.008 A 
ENDBRANCH  28  29
ENDBRANCH  27  28
ENDBRANCH   8  27
BRANCH   3  35
HETATM   35  C4  UNL     1     173.770 185.477 284.211  1.00  0.00    -0.026 A 
HETATM   36  C5  UNL     1     174.927 185.181 284.956  1.00  0.00     0.012 A 
HETATM   37  C6  UNL     1     174.830 184.834 286.308  1.00  0.00     0.001 A 
HETATM   38  C7  UNL     1     173.580 184.777 286.929  1.00  0.00     0.000 A 
HETATM   39  C8  UNL     1     172.424 185.071 286.201  1.00  0.00     0.001 A 
HETATM   40  C9  UNL     1     172.516 185.423 284.851  1.00  0.00     0.012 A 
ENDBRANCH   3  35
TORSDOF 10
ENDMDL
MODEL 2
REMARK VINA RESULT:      -8.5      5.152     10.672
REMARK  10 active torsions:
REMARK  status: ('A' for Active; 'I' for Inactive)
REMARK    1  A    between atoms: C3_3  and  C4_4 
REMARK    2  A    between atoms: C13_14  and  S1_15 
REMARK    3  A    between atoms: S1_15  and  C14_16 
REMARK    4  A    between atoms: C14_16  and  C15_17 
REMARK    5  A    between atoms: C21_23  and  C22_24 
REMARK    6  A    between atoms: C22_24  and  N2_25 
REMARK    7  A    between atoms: N2_25  and  C23_26 
REMARK    8  A    between atoms: C23_26  and  C24_27 
REMARK    9  A    between atoms: C24_27  and  C25_28 
REMARK   10  A    between atoms: N3_31  and  C28_32 
ROOT
HETATM    1  C1  UNL     1     168.915 188.730 286.990  1.00  0.00    -0.006 A 
HETATM    2  C2  UNL     1     169.074 189.298 285.718  1.00  0.00     0.026 A 
HETATM    3  C3  UNL     1     168.917 190.683 285.529  1.00  0.00    -0.025 A 
HETATM    4  C10 UNL     1     168.584 191.490 286.634  1.00  0.00     0.014 A 
HETATM    5  C11 UNL     1     168.412 190.924 287.901  1.00  0.00     0.033 A 
HETATM    6  C12 UNL     1     168.576 189.548 288.083  1.00  0.00     0.068 A 
HETATM    7  N1  UNL     1     168.414 188.999 289.314  1.00  0.00    -0.241 NA
HETATM    8  C13 UNL     1     168.578 187.668 289.546  1.00  0.00     0.102 A 
HETATM    9  C21 UNL     1     168.884 186.799 288.472  1.00  0.00     0.006 A 
HETATM   10  C35 UNL     1     169.065 187.354 287.193  1.00  0.00     0.025 A 
ENDROOT
BRANCH   9  11
HETATM   11  C22 UNL     1     168.906 185.289 288.625  1.00  0.00     0.311 C 
BRANCH  11  12
HETATM   12  N2  UNL     1     169.685 184.599 287.586  1.00  0.00     0.087 N 
HETATM   13  H18 UNL     1     169.420 183.589 287.573  1.00  0.00     0.316 HD
BRANCH  12  14
HETATM   14  C23 UNL     1     171.140 184.698 287.762  1.00  0.00     0.270 C 
BRANCH  14  15
HETATM   15  C24 UNL     1     171.863 184.908 286.421  1.00  0.00     0.034 C 
BRANCH  15  16
HETATM   16  C25 UNL     1     173.239 185.606 286.586  1.00  0.00    -0.010 C 
HETATM   17  C26 UNL     1     173.126 187.136 286.736  1.00  0.00     0.035 C 
HETATM   18  C27 UNL     1     172.626 187.813 285.443  1.00  0.00     0.273 C 
HETATM   19  N3  UNL     1     172.901 187.017 284.215  1.00  0.00     0.093 N 
HETATM   20  C33 UNL     1     174.217 186.352 284.320  1.00  0.00     0.273 C 
HETATM   21  C34 UNL     1     174.187 185.262 285.410  1.00  0.00     0.035 C 
BRANCH  19  22
HETATM   22  C28 UNL     1     172.820 187.868 282.996  1.00  0.00     0.223 C 
HETATM   23  C29 UNL     1     171.882 189.062 283.185  1.00  0.00     0.036 C 
HETATM   24  C30 UNL     1     172.394 190.159 282.258  1.00  0.00     0.002 C 
HETATM   25  C31 UNL     1     173.827 189.793 281.889  1.00  0.00     0.002 C 
HETATM   26  C32 UNL     1     174.159 188.527 282.660  1.00  0.00     0.036 C 
ENDBRANCH  19  22
ENDBRANCH  15  16
ENDBRANCH  14  15
ENDBRANCH  12  14
ENDBRANCH  11  12
ENDBRANCH   9  11
BRANCH   8  27
HETATM   27  S1  UNL     1     168.371 187.069 291.232  1.00  0.00    -0.105 SA
BRANCH  27  28
HETATM   28  C14 UNL     1     169.913 187.812 291.887  1.00  0.00     0.119 C 
BRANCH  28  29
HETATM   29  C15 UNL     1     171.141 187.036 291.492  1.00  0.00    -0.049 A 
HETATM   30  C16 UNL     1     172.035 187.559 290.542  1.00  0.00     0.008 A 
HETATM   31  C17 UNL     1     173.147 186.815 290.136  1.00  0.00     0.001 A 
HETATM   32  C18 UNL     1     173.378 185.546 290.677  1.00  0.00     0.000 A 
HETATM   33  C19 UNL     1     172.493 185.018 291.622  1.00  0.00     0.001 A 
HETATM   34  C20 UNL     1     171.374 185.755 292.023  1.00  0.00     0.008 A 
ENDBRANCH  28  29
ENDBRANCH  27  28
ENDBRANCH   8  27
BRANCH   3  35
HETATM   35  C4  UNL     1     169.100 191.281 284.183  1.00  0.00    -0.026 A 
HETATM   36  C5  UNL     1     168.545 190.671 283.042  1.00  0.00     0.012 A 
HETATM   37  C6  UNL     1     168.728 191.237 281.776  1.00  0.00     0.001 A 
HETATM   38  C7  UNL     1     169.467 192.414 281.634  1.00  0.00     0.000 A 
HETATM   39  C8  UNL     1     170.022 193.030 282.759  1.00  0.00     0.001 A 
HETATM   40  C9  UNL     1     169.837 192.471 284.027  1.00  0.00     0.012 A 
ENDBRANCH   3  35
TORSDOF 10
ENDMDL
MODEL 3
REMARK VINA RESULT:      -8.5      6.653     11.476
REMARK  10 active torsions:
REMARK  status: ('A' for Active; 'I' for Inactive)
REMARK    1  A    between atoms: C3_3  and  C4_4 
REMARK    2  A    between atoms: C13_14  and  S1_15 
REMARK    3  A    between atoms: S1_15  and  C14_16 
REMARK    4  A    between atoms: C14_16  and  C15_17 
REMARK    5  A    between atoms: C21_23  and  C22_24 
REMARK    6  A    between atoms: C22_24  and  N2_25 
REMARK    7  A    between atoms: N2_25  and  C23_26 
REMARK    8  A    between atoms: C23_26  and  C24_27 
REMARK    9  A    between atoms: C24_27  and  C25_28 
REMARK   10  A    between atoms: N3_31  and  C28_32 
ROOT
HETATM    1  C1  UNL     1     170.363 187.391 291.933  1.00  0.00    -0.006 A 
HETATM    2  C2  UNL     1     170.266 187.291 293.328  1.00  0.00     0.026 A 
HETATM    3  C3  UNL     1     169.013 187.354 293.963  1.00  0.00    -0.025 A 
HETATM    4  C10 UNL     1     167.857 187.531 293.179  1.00  0.00     0.014 A 
HETATM    5  C11 UNL     1     167.953 187.643 291.788  1.00  0.00     0.033 A 
HETATM    6  C12 UNL     1     169.200 187.575 291.163  1.00  0.00     0.068 A 
HETATM    7  N1  UNL     1     169.292 187.679 289.813  1.00  0.00    -0.241 NA
HETATM    8  C13 UNL     1     170.482 187.603 289.155  1.00  0.00     0.102 A 
HETATM    9  C21 UNL     1     171.683 187.454 289.888  1.00  0.00     0.006 A 
HETATM   10  C35 UNL     1     171.602 187.334 291.286  1.00  0.00     0.025 A 
ENDROOT
BRANCH   9  11
HETATM   11  C22 UNL     1     173.052 187.539 289.237  1.00  0.00     0.311 C 
BRANCH  11  12
HETATM   12  N2  UNL     1     174.031 186.591 289.791  1.00  0.00     0.087 N 
HETATM   13  H18 UNL     1     174.787 187.124 290.276  1.00  0.00     0.316 HD
BRANCH  12  14
HETATM   14  C23 UNL     1     174.649 185.712 288.788  1.00  0.00     0.270 C 
BRANCH  14  15
HETATM   15  C24 UNL     1     174.176 186.051 287.365  1.00  0.00     0.034 C 
BRANCH  15  16
HETATM   16  C25 UNL     1     173.829 184.788 286.533  1.00  0.00    -0.010 C 
HETATM   17  C26 UNL     1     174.905 184.441 285.485  1.00  0.00     0.035 C 
HETATM   18  C27 UNL     1     174.988 185.496 284.363  1.00  0.00     0.273 C 
HETATM   19  N3  UNL     1     173.726 186.265 284.180  1.00  0.00     0.093 N 
HETATM   20  C33 UNL     1     172.557 185.380 284.370  1.00  0.00     0.273 C 
HETATM   21  C34 UNL     1     172.450 184.934 285.842  1.00  0.00     0.035 C 
BRANCH  19  22
HETATM   22  C28 UNL     1     173.692 186.928 282.848  1.00  0.00     0.223 C 
HETATM   23  C29 UNL     1     175.069 186.957 282.180  1.00  0.00     0.036 C 
HETATM   24  C30 UNL     1     174.815 186.972 280.676  1.00  0.00     0.002 C 
HETATM   25  C31 UNL     1     173.377 186.510 280.466  1.00  0.00     0.002 C 
HETATM   26  C32 UNL     1     172.833 186.162 281.841  1.00  0.00     0.036 C 
ENDBRANCH  19  22
ENDBRANCH  15  16
ENDBRANCH  14  15
ENDBRANCH  12  14
ENDBRANCH  11  12
ENDBRANCH   9  11
BRANCH   8  27
HETATM   27  S1  UNL     1     170.467 187.719 287.358  1.00  0.00    -0.105 SA
BRANCH  27  28
HETATM   28  C14 UNL     1     168.766 188.390 287.226  1.00  0.00     0.119 C 
BRANCH  28  29
HETATM   29  C15 UNL     1     168.747 189.840 286.820  1.00  0.00    -0.049 A 
HETATM   30  C16 UNL     1     168.722 190.849 287.799  1.00  0.00     0.008 A 
HETATM   31  C17 UNL     1     168.652 192.194 287.422  1.00  0.00     0.001 A 
HETATM   32  C18 UNL     1     168.610 192.542 286.069  1.00  0.00     0.000 A 
HETATM   33  C19 UNL     1     168.634 191.545 285.090  1.00  0.00     0.001 A 
HETATM   34  C20 UNL     1     168.694 190.198 285.463  1.00  0.00     0.008 A 
ENDBRANCH  28  29
ENDBRANCH  27  28
ENDBRANCH   8  27
BRANCH   3  35
HETATM   35  C4  UNL     1     168.915 187.233 295.440  1.00  0.00    -0.026 A 
HETATM   36  C5  UNL     1     168.687 188.368 296.242  1.00  0.00     0.012 A 
HETATM   37  C6  UNL     1     168.603 188.247 297.632  1.00  0.00     0.001 A 
HETATM   38  C7  UNL     1     168.746 186.997 298.237  1.00  0.00     0.000 A 
HETATM   39  C8  UNL     1     168.970 185.862 297.453  1.00  0.00     0.001 A 
HETATM   40  C9  UNL     1     169.050 185.977 296.062  1.00  0.00     0.012 A 
ENDBRANCH   3  35
TORSDOF 10
ENDMDL
MODEL 4
REMARK VINA RESULT:      -8.5      2.595      8.598
REMARK  10 active torsions:
REMARK  status: ('A' for Active; 'I' for Inactive)
REMARK    1  A    between atoms: C3_3  and  C4_4 
REMARK    2  A    between atoms: C13_14  and  S1_15 
REMARK    3  A    between atoms: S1_15  and  C14_16 
REMARK    4  A    between atoms: C14_16  and  C15_17 
REMARK    5  A    between atoms: C21_23  and  C22_24 
REMARK    6  A    between atoms: C22_24  and  N2_25 
REMARK    7  A    between atoms: N2_25  and  C23_26 
REMARK    8  A    between atoms: C23_26  and  C24_27 
REMARK    9  A    between atoms: C24_27  and  C25_28 
REMARK   10  A    between atoms: N3_31  and  C28_32 
ROOT
HETATM    1  C1  UNL     1     174.166 185.858 276.450  1.00  0.00    -0.006 A 
HETATM    2  C2  UNL     1     174.154 185.378 275.133  1.00  0.00     0.026 A 
HETATM    3  C3  UNL     1     175.305 185.471 274.329  1.00  0.00    -0.025 A 
HETATM    4  C10 UNL     1     176.464 186.066 274.861  1.00  0.00     0.014 A 
HETATM    5  C11 UNL     1     176.474 186.558 276.170  1.00  0.00     0.033 A 
HETATM    6  C12 UNL     1     175.330 186.456 276.965  1.00  0.00     0.068 A 
HETATM    7  N1  UNL     1     175.340 186.929 278.238  1.00  0.00    -0.241 NA
HETATM    8  C13 UNL     1     174.257 186.840 279.058  1.00  0.00     0.102 A 
HETATM    9  C21 UNL     1     173.052 186.279 278.573  1.00  0.00     0.006 A 
HETATM   10  C35 UNL     1     173.029 185.775 277.261  1.00  0.00     0.025 A 
ENDROOT
BRANCH   9  11
HETATM   11  C22 UNL     1     171.760 186.309 279.370  1.00  0.00     0.311 C 
BRANCH  11  12
HETATM   12  N2  UNL     1     170.550 186.214 278.540  1.00  0.00     0.087 N 
HETATM   13  H18 UNL     1     170.811 185.865 277.592  1.00  0.00     0.316 HD
BRANCH  12  14
HETATM   14  C23 UNL     1     169.826 187.484 278.387  1.00  0.00     0.270 C 
BRANCH  14  15
HETATM   15  C24 UNL     1     170.353 188.301 277.197  1.00  0.00     0.034 C 
BRANCH  15  16
HETATM   16  C25 UNL     1     169.407 188.248 275.968  1.00  0.00    -0.010 C 
HETATM   17  C26 UNL     1     169.769 187.127 274.974  1.00  0.00     0.035 C 
HETATM   18  C27 UNL     1     171.118 187.385 274.272  1.00  0.00     0.273 C 
HETATM   19  N3  UNL     1     171.497 188.824 274.228  1.00  0.00     0.093 N 
HETATM   20  C33 UNL     1     170.299 189.661 274.005  1.00  0.00     0.273 C 
HETATM   21  C34 UNL     1     169.367 189.611 275.232  1.00  0.00     0.035 C 
BRANCH  19  22
HETATM   22  C28 UNL     1     172.533 189.074 273.189  1.00  0.00     0.223 C 
HETATM   23  C29 UNL     1     173.948 189.073 273.772  1.00  0.00     0.036 C 
HETATM   24  C30 UNL     1     174.874 188.632 272.643  1.00  0.00     0.002 C 
HETATM   25  C31 UNL     1     173.999 187.965 271.588  1.00  0.00     0.002 C 
HETATM   26  C32 UNL     1     172.586 187.959 272.144  1.00  0.00     0.036 C 
ENDBRANCH  19  22
ENDBRANCH  15  16
ENDBRANCH  14  15
ENDBRANCH  12  14
ENDBRANCH  11  12
ENDBRANCH   9  11
BRANCH   8  27
HETATM   27  S1  UNL     1     174.410 187.473 280.738  1.00  0.00    -0.105 SA
BRANCH  27  28
HETATM   28  C14 UNL     1     174.820 185.861 281.509  1.00  0.00     0.119 C 
BRANCH  28  29
HETATM   29  C15 UNL     1     174.257 185.727 282.899  1.00  0.00    -0.049 A 
HETATM   30  C16 UNL     1     175.034 185.164 283.926  1.00  0.00     0.008 A 
HETATM   31  C17 UNL     1     174.493 184.991 285.205  1.00  0.00     0.001 A 
HETATM   32  C18 UNL     1     173.177 185.381 285.468  1.00  0.00     0.000 A 
HETATM   33  C19 UNL     1     172.398 185.941 284.452  1.00  0.00     0.001 A 
HETATM   34  C20 UNL     1     172.931 186.106 283.170  1.00  0.00     0.008 A 
ENDBRANCH  28  29
ENDBRANCH  27  28
ENDBRANCH   8  27
BRANCH   3  35
HETATM   35  C4  UNL     1     175.291 184.947 272.939  1.00  0.00    -0.026 A 
HETATM   36  C5  UNL     1     176.370 185.191 272.067  1.00  0.00     0.012 A 
HETATM   37  C6  UNL     1     176.347 184.701 270.758  1.00  0.00     0.001 A 
HETATM   38  C7  UNL     1     175.250 183.964 270.304  1.00  0.00     0.000 A 
HETATM   39  C8  UNL     1     174.174 183.713 271.160  1.00  0.00     0.001 A 
HETATM   40  C9  UNL     1     174.195 184.197 272.471  1.00  0.00     0.012 A 
ENDBRANCH   3  35
TORSDOF 10
ENDMDL
MODEL 5
REMARK VINA RESULT:      -8.4      4.047      8.373
REMARK  10 active torsions:
REMARK  status: ('A' for Active; 'I' for Inactive)
REMARK    1  A    between atoms: C3_3  and  C4_4 
REMARK    2  A    between atoms: C13_14  and  S1_15 
REMARK    3  A    between atoms: S1_15  and  C14_16 
REMARK    4  A    between atoms: C14_16  and  C15_17 
REMARK    5  A    between atoms: C21_23  and  C22_24 
REMARK    6  A    between atoms: C22_24  and  N2_25 
REMARK    7  A    between atoms: N2_25  and  C23_26 
REMARK    8  A    between atoms: C23_26  and  C24_27 
REMARK    9  A    between atoms: C24_27  and  C25_28 
REMARK   10  A    between atoms: N3_31  and  C28_32 
ROOT
HETATM    1  C1  UNL     1     174.008 186.735 278.008  1.00  0.00    -0.006 A 
HETATM    2  C2  UNL     1     174.202 186.474 279.372  1.00  0.00     0.026 A 
HETATM    3  C3  UNL     1     173.100 186.302 280.229  1.00  0.00    -0.025 A 
HETATM    4  C10 UNL     1     171.800 186.409 279.701  1.00  0.00     0.014 A 
HETATM    5  C11 UNL     1     171.605 186.682 278.344  1.00  0.00     0.033 A 
HETATM    6  C12 UNL     1     172.703 186.846 277.496  1.00  0.00     0.068 A 
HETATM    7  N1  UNL     1     172.514 187.106 276.177  1.00  0.00    -0.241 NA
HETATM    8  C13 UNL     1     173.550 187.258 275.307  1.00  0.00     0.102 A 
HETATM    9  C21 UNL     1     174.882 187.191 275.782  1.00  0.00     0.006 A 
HETATM   10  C35 UNL     1     175.094 186.911 277.142  1.00  0.00     0.025 A 
ENDROOT
BRANCH   9  11
HETATM   11  C22 UNL     1     176.077 187.525 274.907  1.00  0.00     0.311 C 
BRANCH  11  12
HETATM   12  N2  UNL     1     176.846 186.346 274.480  1.00  0.00     0.087 N 
HETATM   13  H18 UNL     1     177.665 186.659 273.912  1.00  0.00     0.316 HD
BRANCH  12  14
HETATM   14  C23 UNL     1     176.073 185.378 273.690  1.00  0.00     0.270 C 
BRANCH  14  15
HETATM   15  C24 UNL     1     176.268 185.589 272.180  1.00  0.00     0.034 C 
BRANCH  15  16
HETATM   16  C25 UNL     1     175.640 184.454 271.330  1.00  0.00    -0.010 C 
HETATM   17  C26 UNL     1     176.058 184.506 269.847  1.00  0.00     0.035 C 
HETATM   18  C27 UNL     1     175.484 185.741 269.123  1.00  0.00     0.273 C 
HETATM   19  N3  UNL     1     174.252 186.281 269.761  1.00  0.00     0.093 N 
HETATM   20  C33 UNL     1     173.408 185.175 270.260  1.00  0.00     0.273 C 
HETATM   21  C34 UNL     1     174.094 184.460 271.441  1.00  0.00     0.035 C 
BRANCH  19  22
HETATM   22  C28 UNL     1     173.500 187.154 268.819  1.00  0.00     0.223 C 
HETATM   23  C29 UNL     1     172.591 188.145 269.549  1.00  0.00     0.036 C 
HETATM   24  C30 UNL     1     172.457 189.357 268.632  1.00  0.00     0.002 C 
HETATM   25  C31 UNL     1     173.597 189.277 267.624  1.00  0.00     0.002 C 
HETATM   26  C32 UNL     1     174.425 188.063 268.007  1.00  0.00     0.036 C 
ENDBRANCH  19  22
ENDBRANCH  15  16
ENDBRANCH  14  15
ENDBRANCH  12  14
ENDBRANCH  11  12
ENDBRANCH   9  11
BRANCH   8  27
HETATM   27  S1  UNL     1     173.166 187.564 273.575  1.00  0.00    -0.105 SA
BRANCH  27  28
HETATM   28  C14 UNL     1     173.309 189.389 273.668  1.00  0.00     0.119 C 
BRANCH  28  29
HETATM   29  C15 UNL     1     174.049 189.970 272.493  1.00  0.00    -0.049 A 
HETATM   30  C16 UNL     1     175.040 189.219 271.838  1.00  0.00     0.008 A 
HETATM   31  C17 UNL     1     175.764 189.778 270.780  1.00  0.00     0.001 A 
HETATM   32  C18 UNL     1     175.503 191.088 270.366  1.00  0.00     0.000 A 
HETATM   33  C19 UNL     1     174.519 191.842 271.012  1.00  0.00     0.001 A 
HETATM   34  C20 UNL     1     173.800 191.290 272.077  1.00  0.00     0.008 A 
ENDBRANCH  28  29
ENDBRANCH  27  28
ENDBRANCH   8  27
BRANCH   3  35
HETATM   35  C4  UNL     1     173.311 186.012 281.670  1.00  0.00    -0.026 A 
HETATM   36  C5  UNL     1     174.271 185.068 282.082  1.00  0.00     0.012 A 
HETATM   37  C6  UNL     1     174.459 184.795 283.441  1.00  0.00     0.001 A 
HETATM   38  C7  UNL     1     173.692 185.459 284.401  1.00  0.00     0.000 A 
HETATM   39  C8  UNL     1     172.737 186.399 284.007  1.00  0.00     0.001 A 
HETATM   40  C9  UNL     1     172.549 186.679 282.650  1.00  0.00     0.012 A 
ENDBRANCH   3  35
TORSDOF 10
ENDMDL
MODEL 6
REMARK VINA RESULT:      -8.3      5.901     12.347
REMARK  10 active torsions:
REMARK  status: ('A' for Active; 'I' for Inactive)
REMARK    1  A    between atoms: C3_3  and  C4_4 
REMARK    2  A    between atoms: C13_14  and  S1_15 
REMARK    3  A    between atoms: S1_15  and  C14_16 
REMARK    4  A    between atoms: C14_16  and  C15_17 
REMARK    5  A    between atoms: C21_23  and  C22_24 
REMARK    6  A    between atoms: C22_24  and  N2_25 
REMARK    7  A    between atoms: N2_25  and  C23_26 
REMARK    8  A    between atoms: C23_26  and  C24_27 
REMARK    9  A    between atoms: C24_27  and  C25_28 
REMARK   10  A    between atoms: N3_31  and  C28_32 
ROOT
HETATM    1  C1  UNL     1     175.336 185.604 270.718  1.00  0.00    -0.006 A 
HETATM    2  C2  UNL     1     175.717 184.991 269.517  1.00  0.00     0.026 A 
HETATM    3  C3  UNL     1     175.750 183.589 269.410  1.00  0.00    -0.025 A 
HETATM    4  C10 UNL     1     175.409 182.810 270.532  1.00  0.00     0.014 A 
HETATM    5  C11 UNL     1     175.041 183.420 271.735  1.00  0.00     0.033 A 
HETATM    6  C12 UNL     1     175.003 184.813 271.832  1.00  0.00     0.068 A 
HETATM    7  N1  UNL     1     174.642 185.405 272.999  1.00  0.00    -0.241 NA
HETATM    8  C13 UNL     1     174.575 186.758 273.141  1.00  0.00     0.102 A 
HETATM    9  C21 UNL     1     174.934 187.596 272.059  1.00  0.00     0.006 A 
HETATM   10  C35 UNL     1     175.300 186.998 270.841  1.00  0.00     0.025 A 
ENDROOT
BRANCH   9  11
HETATM   11  C22 UNL     1     175.052 189.104 272.200  1.00  0.00     0.311 C 
BRANCH  11  12
HETATM   12  N2  UNL     1     176.038 189.708 271.291  1.00  0.00     0.087 N 
HETATM   13  H18 UNL     1     176.804 190.140 271.855  1.00  0.00     0.316 HD
BRANCH  12  14
HETATM   14  C23 UNL     1     175.481 190.733 270.397  1.00  0.00     0.270 C 
BRANCH  14  15
HETATM   15  C24 UNL     1     174.124 190.305 269.816  1.00  0.00     0.034 C 
BRANCH  15  16
HETATM   16  C25 UNL     1     174.137 190.217 268.267  1.00  0.00    -0.010 C 
HETATM   17  C26 UNL     1     172.723 190.186 267.652  1.00  0.00     0.035 C 
HETATM   18  C27 UNL     1     171.968 188.886 267.995  1.00  0.00     0.273 C 
HETATM   19  N3  UNL     1     172.869 187.744 268.312  1.00  0.00     0.093 N 
HETATM   20  C33 UNL     1     174.062 187.776 267.440  1.00  0.00     0.273 C 
HETATM   21  C34 UNL     1     174.948 188.990 267.781  1.00  0.00     0.035 C 
BRANCH  19  22
HETATM   22  C28 UNL     1     172.149 186.446 268.197  1.00  0.00     0.223 C 
HETATM   23  C29 UNL     1     172.899 185.445 267.314  1.00  0.00     0.036 C 
HETATM   24  C30 UNL     1     172.510 184.058 267.816  1.00  0.00     0.002 C 
HETATM   25  C31 UNL     1     171.928 184.240 269.213  1.00  0.00     0.002 C 
HETATM   26  C32 UNL     1     172.049 185.718 269.539  1.00  0.00     0.036 C 
ENDBRANCH  19  22
ENDBRANCH  15  16
ENDBRANCH  14  15
ENDBRANCH  12  14
ENDBRANCH  11  12
ENDBRANCH   9  11
BRANCH   8  27
HETATM   27  S1  UNL     1     174.045 187.419 274.730  1.00  0.00    -0.105 SA
BRANCH  27  28
HETATM   28  C14 UNL     1     173.933 185.800 275.581  1.00  0.00     0.119 C 
BRANCH  28  29
HETATM   29  C15 UNL     1     173.510 185.932 277.020  1.00  0.00    -0.049 A 
HETATM   30  C16 UNL     1     172.262 185.439 277.439  1.00  0.00     0.008 A 
HETATM   31  C17 UNL     1     171.846 185.608 278.764  1.00  0.00     0.001 A 
HETATM   32  C18 UNL     1     172.672 186.268 279.679  1.00  0.00     0.000 A 
HETATM   33  C19 UNL     1     173.914 186.762 279.270  1.00  0.00     0.001 A 
HETATM   34  C20 UNL     1     174.329 186.603 277.944  1.00  0.00     0.008 A 
ENDBRANCH  28  29
ENDBRANCH  27  28
ENDBRANCH   8  27
BRANCH   3  35
HETATM   35  C4  UNL     1     176.141 182.944 268.131  1.00  0.00    -0.026 A 
HETATM   36  C5  UNL     1     175.814 181.599 267.872  1.00  0.00     0.012 A 
HETATM   37  C6  UNL     1     176.192 180.997 266.668  1.00  0.00     0.001 A 
HETATM   38  C7  UNL     1     176.899 181.728 265.711  1.00  0.00     0.000 A 
HETATM   39  C8  UNL     1     177.228 183.064 265.953  1.00  0.00     0.001 A 
HETATM   40  C9  UNL     1     176.848 183.672 267.154  1.00  0.00     0.012 A 
ENDBRANCH   3  35
TORSDOF 10
ENDMDL
MODEL 7
REMARK VINA RESULT:      -8.2      6.071     10.970
REMARK  10 active torsions:
REMARK  status: ('A' for Active; 'I' for Inactive)
REMARK    1  A    between atoms: C3_3  and  C4_4 
REMARK    2  A    between atoms: C13_14  and  S1_15 
REMARK    3  A    between atoms: S1_15  and  C14_16 
REMARK    4  A    between atoms: C14_16  and  C15_17 
REMARK    5  A    between atoms: C21_23  and  C22_24 
REMARK    6  A    between atoms: C22_24  and  N2_25 
REMARK    7  A    between atoms: N2_25  and  C23_26 
REMARK    8  A    between atoms: C23_26  and  C24_27 
REMARK    9  A    between atoms: C24_27  and  C25_28 
REMARK   10  A    between atoms: N3_31  and  C28_32 
ROOT
HETATM    1  C1  UNL     1     173.224 187.950 269.131  1.00  0.00    -0.006 A 
HETATM    2  C2  UNL     1     173.148 189.092 269.940  1.00  0.00     0.026 A 
HETATM    3  C3  UNL     1     173.867 190.253 269.606  1.00  0.00    -0.025 A 
HETATM    4  C10 UNL     1     174.676 190.248 268.454  1.00  0.00     0.014 A 
HETATM    5  C11 UNL     1     174.764 189.106 267.653  1.00  0.00     0.033 A 
HETATM    6  C12 UNL     1     174.042 187.957 267.987  1.00  0.00     0.068 A 
HETATM    7  N1  UNL     1     174.124 186.850 267.206  1.00  0.00    -0.241 NA
HETATM    8  C13 UNL     1     173.429 185.711 267.480  1.00  0.00     0.102 A 
HETATM    9  C21 UNL     1     172.620 185.643 268.640  1.00  0.00     0.006 A 
HETATM   10  C35 UNL     1     172.517 186.785 269.451  1.00  0.00     0.025 A 
ENDROOT
BRANCH   9  11
HETATM   11  C22 UNL     1     171.961 184.355 269.099  1.00  0.00     0.311 C 
BRANCH  11  12
HETATM   12  N2  UNL     1     172.839 183.496 269.908  1.00  0.00     0.087 N 
HETATM   13  H18 UNL     1     172.615 182.495 269.710  1.00  0.00     0.316 HD
BRANCH  12  14
HETATM   14  C23 UNL     1     172.731 183.721 271.356  1.00  0.00     0.270 C 
BRANCH  14  15
HETATM   15  C24 UNL     1     174.102 184.008 271.991  1.00  0.00     0.034 C 
BRANCH  15  16
HETATM   16  C25 UNL     1     174.391 185.526 272.130  1.00  0.00    -0.010 C 
HETATM   17  C26 UNL     1     175.734 185.823 272.827  1.00  0.00     0.035 C 
HETATM   18  C27 UNL     1     175.725 185.407 274.312  1.00  0.00     0.273 C 
HETATM   19  N3  UNL     1     174.360 185.362 274.905  1.00  0.00     0.093 N 
HETATM   20  C33 UNL     1     173.534 186.467 274.373  1.00  0.00     0.273 C 
HETATM   21  C34 UNL     1     173.241 186.250 272.875  1.00  0.00     0.035 C 
BRANCH  19  22
HETATM   22  C28 UNL     1     174.421 185.400 276.392  1.00  0.00     0.223 C 
HETATM   23  C29 UNL     1     175.281 186.557 276.907  1.00  0.00     0.036 C 
HETATM   24  C30 UNL     1     174.727 186.922 278.280  1.00  0.00     0.002 C 
HETATM   25  C31 UNL     1     173.329 186.321 278.368  1.00  0.00     0.002 C 
HETATM   26  C32 UNL     1     173.054 185.675 277.021  1.00  0.00     0.036 C 
ENDBRANCH  19  22
ENDBRANCH  15  16
ENDBRANCH  14  15
ENDBRANCH  12  14
ENDBRANCH  11  12
ENDBRANCH   9  11
BRANCH   8  27
HETATM   27  S1  UNL     1     173.595 184.322 266.346  1.00  0.00    -0.105 SA
BRANCH  27  28
HETATM   28  C14 UNL     1     175.424 184.233 266.422  1.00  0.00     0.119 C 
BRANCH  28  29
HETATM   29  C15 UNL     1     175.921 183.696 267.738  1.00  0.00    -0.049 A 
HETATM   30  C16 UNL     1     175.613 182.380 268.127  1.00  0.00     0.008 A 
HETATM   31  C17 UNL     1     176.029 181.898 269.372  1.00  0.00     0.001 A 
HETATM   32  C18 UNL     1     176.758 182.721 270.236  1.00  0.00     0.000 A 
HETATM   33  C19 UNL     1     177.067 184.031 269.857  1.00  0.00     0.001 A 
HETATM   34  C20 UNL     1     176.644 184.520 268.617  1.00  0.00     0.008 A 
ENDBRANCH  28  29
ENDBRANCH  27  28
ENDBRANCH   8  27
BRANCH   3  35
HETATM   35  C4  UNL     1     173.771 191.465 270.458  1.00  0.00    -0.026 A 
HETATM   36  C5  UNL     1     174.918 192.014 271.063  1.00  0.00     0.012 A 
HETATM   37  C6  UNL     1     174.818 193.151 271.870  1.00  0.00     0.001 A 
HETATM   38  C7  UNL     1     173.575 193.752 272.084  1.00  0.00     0.000 A 
HETATM   39  C8  UNL     1     172.429 193.219 271.489  1.00  0.00     0.001 A 
HETATM   40  C9  UNL     1     172.525 192.085 270.677  1.00  0.00     0.012 A 
ENDBRANCH   3  35
TORSDOF 10
ENDMDL
MODEL 8
REMARK VINA RESULT:      -8.1      7.101     12.078
REMARK  10 active torsions:
REMARK  status: ('A' for Active; 'I' for Inactive)
REMARK    1  A    between atoms: C3_3  and  C4_4 
REMARK    2  A    between atoms: C13_14  and  S1_15 
REMARK    3  A    between atoms: S1_15  and  C14_16 
REMARK    4  A    between atoms: C14_16  and  C15_17 
REMARK    5  A    between atoms: C21_23  and  C22_24 
REMARK    6  A    between atoms: C22_24  and  N2_25 
REMARK    7  A    between atoms: N2_25  and  C23_26 
REMARK    8  A    between atoms: C23_26  and  C24_27 
REMARK    9  A    between atoms: C24_27  and  C25_28 
REMARK   10  A    between atoms: N3_31  and  C28_32 
ROOT
HETATM    1  C1  UNL     1     174.501 187.921 268.671  1.00  0.00    -0.006 A 
HETATM    2  C2  UNL     1     174.477 189.057 269.492  1.00  0.00     0.026 A 
HETATM    3  C3  UNL     1     173.589 190.115 269.222  1.00  0.00    -0.025 A 
HETATM    4  C10 UNL     1     172.735 190.022 268.107  1.00  0.00     0.014 A 
HETATM    5  C11 UNL     1     172.766 188.896 267.280  1.00  0.00     0.033 A 
HETATM    6  C12 UNL     1     173.646 187.846 267.557  1.00  0.00     0.068 A 
HETATM    7  N1  UNL     1     173.673 186.750 266.756  1.00  0.00    -0.241 NA
HETATM    8  C13 UNL     1     174.500 185.694 266.993  1.00  0.00     0.102 A 
HETATM    9  C21 UNL     1     175.404 185.739 268.081  1.00  0.00     0.006 A 
HETATM   10  C35 UNL     1     175.379 186.862 268.925  1.00  0.00     0.025 A 
ENDROOT
BRANCH   9  11
HETATM   11  C22 UNL     1     176.471 184.681 268.298  1.00  0.00     0.311 C 
BRANCH  11  12
HETATM   12  N2  UNL     1     176.740 184.393 269.715  1.00  0.00     0.087 N 
HETATM   13  H18 UNL     1     177.671 183.928 269.799  1.00  0.00     0.316 HD
BRANCH  12  14
HETATM   14  C23 UNL     1     175.731 183.538 270.356  1.00  0.00     0.270 C 
BRANCH  14  15
HETATM   15  C24 UNL     1     175.453 183.972 271.804  1.00  0.00     0.034 C 
BRANCH  15  16
HETATM   16  C25 UNL     1     175.325 185.511 271.953  1.00  0.00    -0.010 C 
HETATM   17  C26 UNL     1     176.444 186.130 272.814  1.00  0.00     0.035 C 
HETATM   18  C27 UNL     1     176.348 185.701 274.292  1.00  0.00     0.273 C 
HETATM   19  N3  UNL     1     174.974 185.299 274.703  1.00  0.00     0.093 N 
HETATM   20  C33 UNL     1     173.971 186.165 274.048  1.00  0.00     0.273 C 
HETATM   21  C34 UNL     1     173.941 185.905 272.529  1.00  0.00     0.035 C 
BRANCH  19  22
HETATM   22  C28 UNL     1     174.829 185.326 276.184  1.00  0.00     0.223 C 
HETATM   23  C29 UNL     1     175.583 186.497 276.818  1.00  0.00     0.036 C 
HETATM   24  C30 UNL     1     174.837 186.841 278.103  1.00  0.00     0.002 C 
HETATM   25  C31 UNL     1     173.454 186.209 277.994  1.00  0.00     0.002 C 
HETATM   26  C32 UNL     1     173.382 185.568 276.619  1.00  0.00     0.036 C 
ENDBRANCH  19  22
ENDBRANCH  15  16
ENDBRANCH  14  15
ENDBRANCH  12  14
ENDBRANCH  11  12
ENDBRANCH   9  11
BRANCH   8  27
HETATM   27  S1  UNL     1     174.415 184.283 265.877  1.00  0.00    -0.105 SA
BRANCH  27  28
HETATM   28  C14 UNL     1     175.750 184.848 264.756  1.00  0.00     0.119 C 
BRANCH  28  29
HETATM   29  C15 UNL     1     176.642 183.721 264.307  1.00  0.00    -0.049 A 
HETATM   30  C16 UNL     1     177.051 182.735 265.222  1.00  0.00     0.008 A 
HETATM   31  C17 UNL     1     177.922 181.718 264.819  1.00  0.00     0.001 A 
HETATM   32  C18 UNL     1     178.388 181.674 263.502  1.00  0.00     0.000 A 
HETATM   33  C19 UNL     1     177.987 182.652 262.586  1.00  0.00     0.001 A 
HETATM   34  C20 UNL     1     177.124 183.676 262.988  1.00  0.00     0.008 A 
ENDBRANCH  28  29
ENDBRANCH  27  28
ENDBRANCH   8  27
BRANCH   3  35
HETATM   35  C4  UNL     1     173.558 191.310 270.103  1.00  0.00    -0.026 A 
HETATM   36  C5  UNL     1     174.711 191.723 270.798  1.00  0.00     0.012 A 
HETATM   37  C6  UNL     1     174.671 192.845 271.632  1.00  0.00     0.001 A 
HETATM   38  C7  UNL     1     173.483 193.565 271.782  1.00  0.00     0.000 A 
HETATM   39  C8  UNL     1     172.333 193.167 271.097  1.00  0.00     0.001 A 
HETATM   40  C9  UNL     1     172.369 192.049 270.258  1.00  0.00     0.012 A 
ENDBRANCH   3  35
TORSDOF 10
ENDMDL
MODEL 9
REMARK VINA RESULT:      -8.1      7.618     12.205
REMARK  10 active torsions:
REMARK  status: ('A' for Active; 'I' for Inactive)
REMARK    1  A    between atoms: C3_3  and  C4_4 
REMARK    2  A    between atoms: C13_14  and  S1_15 
REMARK    3  A    between atoms: S1_15  and  C14_16 
REMARK    4  A    between atoms: C14_16  and  C15_17 
REMARK    5  A    between atoms: C21_23  and  C22_24 
REMARK    6  A    between atoms: C22_24  and  N2_25 
REMARK    7  A    between atoms: N2_25  and  C23_26 
REMARK    8  A    between atoms: C23_26  and  C24_27 
REMARK    9  A    between atoms: C24_27  and  C25_28 
REMARK   10  A    between atoms: N3_31  and  C28_32 
ROOT
HETATM    1  C1  UNL     1     174.506 187.899 268.836  1.00  0.00    -0.006 A 
HETATM    2  C2  UNL     1     174.497 189.025 269.670  1.00  0.00     0.026 A 
HETATM    3  C3  UNL     1     173.778 190.178 269.305  1.00  0.00    -0.025 A 
HETATM    4  C10 UNL     1     173.079 190.189 268.084  1.00  0.00     0.014 A 
HETATM    5  C11 UNL     1     173.097 189.071 267.244  1.00  0.00     0.033 A 
HETATM    6  C12 UNL     1     173.808 187.927 267.615  1.00  0.00     0.068 A 
HETATM    7  N1  UNL     1     173.822 186.840 266.803  1.00  0.00    -0.241 NA
HETATM    8  C13 UNL     1     174.486 185.696 267.126  1.00  0.00     0.102 A 
HETATM    9  C21 UNL     1     175.233 185.632 268.327  1.00  0.00     0.006 A 
HETATM   10  C35 UNL     1     175.219 186.745 269.183  1.00  0.00     0.025 A 
ENDROOT
BRANCH   9  11
HETATM   11  C22 UNL     1     176.136 184.459 268.663  1.00  0.00     0.311 C 
BRANCH  11  12
HETATM   12  N2  UNL     1     175.543 183.508 269.616  1.00  0.00     0.087 N 
HETATM   13  H18 UNL     1     174.505 183.626 269.616  1.00  0.00     0.316 HD
BRANCH  12  14
HETATM   14  C23 UNL     1     176.029 183.657 270.994  1.00  0.00     0.270 C 
BRANCH  14  15
HETATM   15  C24 UNL     1     174.953 184.253 271.917  1.00  0.00     0.034 C 
BRANCH  15  16
HETATM   16  C25 UNL     1     175.542 184.811 273.240  1.00  0.00    -0.010 C 
HETATM   17  C26 UNL     1     174.458 185.222 274.257  1.00  0.00     0.035 C 
HETATM   18  C27 UNL     1     173.644 186.442 273.781  1.00  0.00     0.273 C 
HETATM   19  N3  UNL     1     174.376 187.298 272.807  1.00  0.00     0.093 N 
HETATM   20  C33 UNL     1     175.807 187.375 273.169  1.00  0.00     0.273 C 
HETATM   21  C34 UNL     1     176.490 186.007 272.971  1.00  0.00     0.035 C 
BRANCH  19  22
HETATM   22  C28 UNL     1     173.766 188.652 272.720  1.00  0.00     0.223 C 
HETATM   23  C29 UNL     1     172.236 188.602 272.768  1.00  0.00     0.036 C 
HETATM   24  C30 UNL     1     171.784 189.930 273.368  1.00  0.00     0.002 C 
HETATM   25  C31 UNL     1     172.998 190.538 274.062  1.00  0.00     0.002 C 
HETATM   26  C32 UNL     1     174.123 189.527 273.922  1.00  0.00     0.036 C 
ENDBRANCH  19  22
ENDBRANCH  15  16
ENDBRANCH  14  15
ENDBRANCH  12  14
ENDBRANCH  11  12
ENDBRANCH   9  11
BRANCH   8  27
HETATM   27  S1  UNL     1     174.397 184.310 265.979  1.00  0.00    -0.105 SA
BRANCH  27  28
HETATM   28  C14 UNL     1     175.753 184.882 264.886  1.00  0.00     0.119 C 
BRANCH  28  29
HETATM   29  C15 UNL     1     176.677 183.765 264.479  1.00  0.00    -0.049 A 
HETATM   30  C16 UNL     1     177.114 183.657 263.148  1.00  0.00     0.008 A 
HETATM   31  C17 UNL     1     177.929 182.589 262.758  1.00  0.00     0.001 A 
HETATM   32  C18 UNL     1     178.318 181.626 263.694  1.00  0.00     0.000 A 
HETATM   33  C19 UNL     1     177.887 181.726 265.020  1.00  0.00     0.001 A 
HETATM   34  C20 UNL     1     177.063 182.786 265.411  1.00  0.00     0.008 A 
ENDBRANCH  28  29
ENDBRANCH  27  28
ENDBRANCH   8  27
BRANCH   3  35
HETATM   35  C4  UNL     1     173.760 191.363 270.199  1.00  0.00    -0.026 A 
HETATM   36  C5  UNL     1     174.939 191.812 270.825  1.00  0.00     0.012 A 
HETATM   37  C6  UNL     1     174.912 192.925 271.671  1.00  0.00     0.001 A 
HETATM   38  C7  UNL     1     173.712 193.601 271.903  1.00  0.00     0.000 A 
HETATM   39  C8  UNL     1     172.535 193.167 271.287  1.00  0.00     0.001 A 
HETATM   40  C9  UNL     1     172.558 192.058 270.437  1.00  0.00     0.012 A 
ENDBRANCH   3  35
TORSDOF 10
ENDMDL
