MODEL 1
REMARK VINA RESULT:      -9.0      0.000      0.000
REMARK  10 active torsions:
REMARK  status: ('A' for Active; 'I' for Inactive)
REMARK    1  A    between atoms: C1_1  and  C2_2 
REMARK    2  A    between atoms: C11_12  and  S1_13 
REMARK    3  A    between atoms: S1_13  and  C12_14 
REMARK    4  A    between atoms: C12_14  and  C13_15 
REMARK    5  A    between atoms: C19_21  and  C20_22 
REMARK    6  A    between atoms: C20_22  and  N2_23 
REMARK    7  A    between atoms: N2_23  and  C21_24 
REMARK    8  A    between atoms: C21_24  and  C22_25 
REMARK    9  A    between atoms: C25_28  and  C26_29 
REMARK   10  A    between atoms: C26_29  and  N3_30 
ROOT
HETATM    1  C1  UNL     1     173.830 185.981 282.635  1.00  0.00    -0.025 A 
HETATM    2  C8  UNL     1     175.055 186.382 282.070  1.00  0.00     0.014 A 
HETATM    3  C9  UNL     1     175.131 186.732 280.716  1.00  0.00     0.033 A 
HETATM    4  C10 UNL     1     173.984 186.699 279.918  1.00  0.00     0.068 A 
HETATM    5  N1  UNL     1     174.066 186.993 278.594  1.00  0.00    -0.241 NA
HETATM    6  C11 UNL     1     172.985 186.939 277.770  1.00  0.00     0.102 A 
HETATM    7  C19 UNL     1     171.718 186.573 278.285  1.00  0.00     0.006 A 
HETATM    8  C33 UNL     1     171.607 186.326 279.668  1.00  0.00     0.025 A 
HETATM    9  C34 UNL     1     172.743 186.346 280.484  1.00  0.00    -0.006 A 
HETATM   10  C35 UNL     1     172.669 185.991 281.840  1.00  0.00     0.026 A 
ENDROOT
BRANCH   7  11
HETATM   11  C20 UNL     1     170.486 186.497 277.399  1.00  0.00     0.311 C 
BRANCH  11  12
HETATM   12  N2  UNL     1     169.267 186.913 278.112  1.00  0.00     0.091 N 
HETATM   13  H17 UNL     1     169.526 187.106 279.108  1.00  0.00     0.316 HD
BRANCH  12  14
HETATM   14  C21 UNL     1     168.658 188.126 277.540  1.00  0.00     0.308 C 
BRANCH  14  15
HETATM   15  C22 UNL     1     168.997 189.289 278.423  1.00  0.00    -0.030 A 
HETATM   16  C23 UNL     1     170.105 190.096 278.128  1.00  0.00     0.009 A 
HETATM   17  C24 UNL     1     170.503 191.103 279.013  1.00  0.00     0.009 A 
HETATM   18  C25 UNL     1     169.823 191.291 280.227  1.00  0.00    -0.030 A 
HETATM   19  C31 UNL     1     168.686 190.511 280.497  1.00  0.00     0.009 A 
HETATM   20  C32 UNL     1     168.271 189.525 279.599  1.00  0.00     0.009 A 
BRANCH  18  21
HETATM   21  C26 UNL     1     170.302 192.306 281.250  1.00  0.00     0.311 C 
BRANCH  21  22
HETATM   22  N3  UNL     1     171.393 191.826 282.140  1.00  0.00     0.092 N 
HETATM   23  C27 UNL     1     172.634 191.471 281.430  1.00  0.00     0.273 C 
HETATM   24  C28 UNL     1     172.925 189.992 281.680  1.00  0.00     0.032 C 
HETATM   25  C29 UNL     1     171.714 189.453 282.413  1.00  0.00     0.032 C 
HETATM   26  C30 UNL     1     171.042 190.683 282.996  1.00  0.00     0.273 C 
ENDBRANCH  21  22
ENDBRANCH  18  21
ENDBRANCH  14  15
ENDBRANCH  12  14
ENDBRANCH  11  12
ENDBRANCH   7  11
BRANCH   6  27
HETATM   27  S1  UNL     1     173.227 187.331 276.032  1.00  0.00    -0.105 SA
BRANCH  27  28
HETATM   28  C12 UNL     1     173.983 185.716 275.619  1.00  0.00     0.119 C 
BRANCH  28  29
HETATM   29  C13 UNL     1     175.455 185.889 275.353  1.00  0.00    -0.049 A 
HETATM   30  C14 UNL     1     176.396 185.640 276.367  1.00  0.00     0.008 A 
HETATM   31  C15 UNL     1     177.763 185.796 276.112  1.00  0.00     0.001 A 
HETATM   32  C16 UNL     1     178.201 186.199 274.849  1.00  0.00     0.000 A 
HETATM   33  C17 UNL     1     177.273 186.453 273.836  1.00  0.00     0.001 A 
HETATM   34  C18 UNL     1     175.903 186.302 274.087  1.00  0.00     0.008 A 
ENDBRANCH  28  29
ENDBRANCH  27  28
ENDBRANCH   6  27
BRANCH   1  35
HETATM   35  C2  UNL     1     173.772 185.517 284.042  1.00  0.00    -0.026 A 
HETATM   36  C3  UNL     1     174.949 185.130 284.709  1.00  0.00     0.012 A 
HETATM   37  C4  UNL     1     174.902 184.702 286.040  1.00  0.00     0.001 A 
HETATM   38  C5  UNL     1     173.682 184.666 286.718  1.00  0.00     0.000 A 
HETATM   39  C6  UNL     1     172.508 185.064 286.070  1.00  0.00     0.001 A 
HETATM   40  C7  UNL     1     172.550 185.486 284.738  1.00  0.00     0.012 A 
ENDBRANCH   1  35
TORSDOF 10
ENDMDL
MODEL 2
REMARK VINA RESULT:      -8.7      2.586      7.201
REMARK  10 active torsions:
REMARK  status: ('A' for Active; 'I' for Inactive)
REMARK    1  A    between atoms: C1_1  and  C2_2 
REMARK    2  A    between atoms: C11_12  and  S1_13 
REMARK    3  A    between atoms: S1_13  and  C12_14 
REMARK    4  A    between atoms: C12_14  and  C13_15 
REMARK    5  A    between atoms: C19_21  and  C20_22 
REMARK    6  A    between atoms: C20_22  and  N2_23 
REMARK    7  A    between atoms: N2_23  and  C21_24 
REMARK    8  A    between atoms: C21_24  and  C22_25 
REMARK    9  A    between atoms: C25_28  and  C26_29 
REMARK   10  A    between atoms: C26_29  and  N3_30 
ROOT
HETATM    1  C1  UNL     1     170.131 191.280 281.457  1.00  0.00    -0.025 A 
HETATM    2  C8  UNL     1     169.335 190.949 280.345  1.00  0.00     0.014 A 
HETATM    3  C9  UNL     1     169.627 189.817 279.574  1.00  0.00     0.033 A 
HETATM    4  C10 UNL     1     170.707 188.997 279.915  1.00  0.00     0.068 A 
HETATM    5  N1  UNL     1     171.020 187.925 279.141  1.00  0.00    -0.241 NA
HETATM    6  C11 UNL     1     172.082 187.119 279.412  1.00  0.00     0.102 A 
HETATM    7  C19 UNL     1     172.902 187.381 280.535  1.00  0.00     0.006 A 
HETATM    8  C33 UNL     1     172.552 188.452 281.381  1.00  0.00     0.025 A 
HETATM    9  C34 UNL     1     171.482 189.291 281.055  1.00  0.00    -0.006 A 
HETATM   10  C35 UNL     1     171.190 190.429 281.823  1.00  0.00     0.026 A 
ENDROOT
BRANCH   7  11
HETATM   11  C20 UNL     1     174.100 186.509 280.871  1.00  0.00     0.311 C 
BRANCH  11  12
HETATM   12  N2  UNL     1     173.720 185.332 281.669  1.00  0.00     0.091 N 
HETATM   13  H17 UNL     1     173.583 184.528 281.013  1.00  0.00     0.316 HD
BRANCH  12  14
HETATM   14  C21 UNL     1     174.743 184.961 282.662  1.00  0.00     0.308 C 
BRANCH  14  15
HETATM   15  C22 UNL     1     174.094 184.894 284.012  1.00  0.00    -0.030 A 
HETATM   16  C23 UNL     1     172.733 185.198 284.153  1.00  0.00     0.009 A 
HETATM   17  C24 UNL     1     172.150 185.262 285.422  1.00  0.00     0.009 A 
HETATM   18  C25 UNL     1     172.930 185.064 286.573  1.00  0.00    -0.030 A 
HETATM   19  C31 UNL     1     174.282 184.715 286.425  1.00  0.00     0.009 A 
HETATM   20  C32 UNL     1     174.857 184.622 285.156  1.00  0.00     0.009 A 
BRANCH  18  21
HETATM   21  C26 UNL     1     172.341 185.234 287.963  1.00  0.00     0.311 C 
BRANCH  21  22
HETATM   22  N3  UNL     1     173.150 186.078 288.882  1.00  0.00     0.092 N 
HETATM   23  C27 UNL     1     173.134 185.625 290.284  1.00  0.00     0.273 C 
HETATM   24  C28 UNL     1     172.539 186.741 291.143  1.00  0.00     0.032 C 
HETATM   25  C29 UNL     1     172.043 187.789 290.169  1.00  0.00     0.032 C 
HETATM   26  C30 UNL     1     172.802 187.508 288.885  1.00  0.00     0.273 C 
ENDBRANCH  21  22
ENDBRANCH  18  21
ENDBRANCH  14  15
ENDBRANCH  12  14
ENDBRANCH  11  12
ENDBRANCH   7  11
BRANCH   6  27
HETATM   27  S1  UNL     1     172.404 185.744 278.299  1.00  0.00    -0.105 SA
BRANCH  27  28
HETATM   28  C12 UNL     1     173.056 186.794 276.949  1.00  0.00     0.119 C 
BRANCH  28  29
HETATM   29  C13 UNL     1     174.428 186.321 276.547  1.00  0.00    -0.049 A 
HETATM   30  C14 UNL     1     174.585 185.396 275.501  1.00  0.00     0.008 A 
HETATM   31  C15 UNL     1     175.863 184.966 275.127  1.00  0.00     0.001 A 
HETATM   32  C16 UNL     1     176.991 185.454 275.790  1.00  0.00     0.000 A 
HETATM   33  C17 UNL     1     176.845 186.371 276.834  1.00  0.00     0.001 A 
HETATM   34  C18 UNL     1     175.568 186.802 277.215  1.00  0.00     0.008 A 
ENDBRANCH  28  29
ENDBRANCH  27  28
ENDBRANCH   6  27
BRANCH   1  35
HETATM   35  C2  UNL     1     169.880 192.532 282.212  1.00  0.00    -0.026 A 
HETATM   36  C3  UNL     1     169.170 193.588 281.613  1.00  0.00     0.012 A 
HETATM   37  C4  UNL     1     168.920 194.767 282.323  1.00  0.00     0.001 A 
HETATM   38  C5  UNL     1     169.368 194.896 283.639  1.00  0.00     0.000 A 
HETATM   39  C6  UNL     1     170.061 193.846 284.249  1.00  0.00     0.001 A 
HETATM   40  C7  UNL     1     170.318 192.669 283.541  1.00  0.00     0.012 A 
ENDBRANCH   1  35
TORSDOF 10
ENDMDL
MODEL 3
REMARK VINA RESULT:      -8.6      6.975     12.021
REMARK  10 active torsions:
REMARK  status: ('A' for Active; 'I' for Inactive)
REMARK    1  A    between atoms: C1_1  and  C2_2 
REMARK    2  A    between atoms: C11_12  and  S1_13 
REMARK    3  A    between atoms: S1_13  and  C12_14 
REMARK    4  A    between atoms: C12_14  and  C13_15 
REMARK    5  A    between atoms: C19_21  and  C20_22 
REMARK    6  A    between atoms: C20_22  and  N2_23 
REMARK    7  A    between atoms: N2_23  and  C21_24 
REMARK    8  A    between atoms: C21_24  and  C22_25 
REMARK    9  A    between atoms: C25_28  and  C26_29 
REMARK   10  A    between atoms: C26_29  and  N3_30 
ROOT
HETATM    1  C1  UNL     1     173.839 189.992 269.315  1.00  0.00    -0.025 A 
HETATM    2  C8  UNL     1     173.161 190.082 268.085  1.00  0.00     0.014 A 
HETATM    3  C9  UNL     1     173.109 188.981 267.221  1.00  0.00     0.033 A 
HETATM    4  C10 UNL     1     173.720 187.777 267.583  1.00  0.00     0.068 A 
HETATM    5  N1  UNL     1     173.711 186.724 266.724  1.00  0.00    -0.241 NA
HETATM    6  C11 UNL     1     174.323 185.544 267.016  1.00  0.00     0.102 A 
HETATM    7  C19 UNL     1     174.995 185.381 268.252  1.00  0.00     0.006 A 
HETATM    8  C33 UNL     1     174.959 186.443 269.176  1.00  0.00     0.025 A 
HETATM    9  C34 UNL     1     174.360 187.660 268.832  1.00  0.00    -0.006 A 
HETATM   10  C35 UNL     1     174.416 188.766 269.695  1.00  0.00     0.026 A 
ENDROOT
BRANCH   7  11
HETATM   11  C20 UNL     1     175.694 184.082 268.616  1.00  0.00     0.311 C 
BRANCH  11  12
HETATM   12  N2  UNL     1     174.906 183.277 269.562  1.00  0.00     0.091 N 
HETATM   13  H17 UNL     1     174.713 182.350 269.115  1.00  0.00     0.316 HD
BRANCH  12  14
HETATM   14  C21 UNL     1     175.607 183.048 270.838  1.00  0.00     0.308 C 
BRANCH  14  15
HETATM   15  C22 UNL     1     175.474 184.281 271.681  1.00  0.00    -0.030 A 
HETATM   16  C23 UNL     1     176.581 185.118 271.883  1.00  0.00     0.009 A 
HETATM   17  C24 UNL     1     176.500 186.197 272.767  1.00  0.00     0.009 A 
HETATM   18  C25 UNL     1     175.322 186.432 273.496  1.00  0.00    -0.030 A 
HETATM   19  C31 UNL     1     174.202 185.619 273.256  1.00  0.00     0.009 A 
HETATM   20  C32 UNL     1     174.274 184.560 272.350  1.00  0.00     0.009 A 
BRANCH  18  21
HETATM   21  C26 UNL     1     175.248 187.533 274.540  1.00  0.00     0.311 C 
BRANCH  21  22
HETATM   22  N3  UNL     1     175.894 187.204 275.838  1.00  0.00     0.092 N 
HETATM   23  C27 UNL     1     177.365 187.266 275.809  1.00  0.00     0.273 C 
HETATM   24  C28 UNL     1     177.912 185.879 276.149  1.00  0.00     0.032 C 
HETATM   25  C29 UNL     1     176.706 184.964 276.201  1.00  0.00     0.032 C 
HETATM   26  C30 UNL     1     175.526 185.898 276.405  1.00  0.00     0.273 C 
ENDBRANCH  21  22
ENDBRANCH  18  21
ENDBRANCH  14  15
ENDBRANCH  12  14
ENDBRANCH  11  12
ENDBRANCH   7  11
BRANCH   6  27
HETATM   27  S1  UNL     1     174.257 184.232 265.788  1.00  0.00    -0.105 SA
BRANCH  27  28
HETATM   28  C12 UNL     1     175.672 184.867 264.816  1.00  0.00     0.119 C 
BRANCH  28  29
HETATM   29  C13 UNL     1     176.593 183.734 264.449  1.00  0.00    -0.049 A 
HETATM   30  C14 UNL     1     176.943 182.763 265.402  1.00  0.00     0.008 A 
HETATM   31  C15 UNL     1     177.795 181.708 265.053  1.00  0.00     0.001 A 
HETATM   32  C16 UNL     1     178.301 181.614 263.755  1.00  0.00     0.000 A 
HETATM   33  C17 UNL     1     177.962 182.577 262.802  1.00  0.00     0.001 A 
HETATM   34  C18 UNL     1     177.114 183.637 263.147  1.00  0.00     0.008 A 
ENDBRANCH  28  29
ENDBRANCH  27  28
ENDBRANCH   6  27
BRANCH   1  35
HETATM   35  C2  UNL     1     173.977 191.187 270.183  1.00  0.00    -0.026 A 
HETATM   36  C3  UNL     1     172.832 191.864 270.641  1.00  0.00     0.012 A 
HETATM   37  C4  UNL     1     172.954 192.984 271.470  1.00  0.00     0.001 A 
HETATM   38  C5  UNL     1     174.220 193.431 271.854  1.00  0.00     0.000 A 
HETATM   39  C6  UNL     1     175.364 192.757 271.417  1.00  0.00     0.001 A 
HETATM   40  C7  UNL     1     175.246 191.640 270.585  1.00  0.00     0.012 A 
ENDBRANCH   1  35
TORSDOF 10
ENDMDL
MODEL 4
REMARK VINA RESULT:      -8.6      2.666      8.420
REMARK  10 active torsions:
REMARK  status: ('A' for Active; 'I' for Inactive)
REMARK    1  A    between atoms: C1_1  and  C2_2 
REMARK    2  A    between atoms: C11_12  and  S1_13 
REMARK    3  A    between atoms: S1_13  and  C12_14 
REMARK    4  A    between atoms: C12_14  and  C13_15 
REMARK    5  A    between atoms: C19_21  and  C20_22 
REMARK    6  A    between atoms: C20_22  and  N2_23 
REMARK    7  A    between atoms: N2_23  and  C21_24 
REMARK    8  A    between atoms: C21_24  and  C22_25 
REMARK    9  A    between atoms: C25_28  and  C26_29 
REMARK   10  A    between atoms: C26_29  and  N3_30 
ROOT
HETATM    1  C1  UNL     1     175.399 185.396 274.423  1.00  0.00    -0.025 A 
HETATM    2  C8  UNL     1     176.564 185.957 274.978  1.00  0.00     0.014 A 
HETATM    3  C9  UNL     1     176.553 186.475 276.279  1.00  0.00     0.033 A 
HETATM    4  C10 UNL     1     175.383 186.423 277.044  1.00  0.00     0.068 A 
HETATM    5  N1  UNL     1     175.359 186.967 278.288  1.00  0.00    -0.241 NA
HETATM    6  C11 UNL     1     174.235 186.973 279.055  1.00  0.00     0.102 A 
HETATM    7  C19 UNL     1     173.039 186.395 278.566  1.00  0.00     0.006 A 
HETATM    8  C33 UNL     1     173.068 185.773 277.302  1.00  0.00     0.025 A 
HETATM    9  C34 UNL     1     174.224 185.819 276.516  1.00  0.00    -0.006 A 
HETATM   10  C35 UNL     1     174.236 185.306 275.210  1.00  0.00     0.026 A 
ENDROOT
BRANCH   7  11
HETATM   11  C20 UNL     1     171.761 186.384 279.388  1.00  0.00     0.311 C 
BRANCH  11  12
HETATM   12  N2  UNL     1     170.978 187.616 279.207  1.00  0.00     0.091 N 
HETATM   13  H17 UNL     1     171.612 188.345 278.803  1.00  0.00     0.316 HD
BRANCH  12  14
HETATM   14  C21 UNL     1     169.831 187.435 278.300  1.00  0.00     0.308 C 
BRANCH  14  15
HETATM   15  C22 UNL     1     170.250 187.838 276.918  1.00  0.00    -0.030 A 
HETATM   16  C23 UNL     1     170.078 186.954 275.844  1.00  0.00     0.009 A 
HETATM   17  C24 UNL     1     170.580 187.270 274.579  1.00  0.00     0.009 A 
HETATM   18  C25 UNL     1     171.300 188.459 274.376  1.00  0.00    -0.030 A 
HETATM   19  C31 UNL     1     171.430 189.363 275.444  1.00  0.00     0.009 A 
HETATM   20  C32 UNL     1     170.903 189.060 276.700  1.00  0.00     0.009 A 
BRANCH  18  21
HETATM   21  C26 UNL     1     171.945 188.772 273.038  1.00  0.00     0.311 C 
BRANCH  21  22
HETATM   22  N3  UNL     1     173.221 189.531 273.124  1.00  0.00     0.092 N 
HETATM   23  C27 UNL     1     173.519 190.343 271.932  1.00  0.00     0.273 C 
HETATM   24  C28 UNL     1     174.834 189.849 271.329  1.00  0.00     0.032 C 
HETATM   25  C29 UNL     1     175.200 188.603 272.109  1.00  0.00     0.032 C 
HETATM   26  C30 UNL     1     174.414 188.717 273.403  1.00  0.00     0.273 C 
ENDBRANCH  21  22
ENDBRANCH  18  21
ENDBRANCH  14  15
ENDBRANCH  12  14
ENDBRANCH  11  12
ENDBRANCH   7  11
BRANCH   6  27
HETATM   27  S1  UNL     1     174.325 187.742 280.678  1.00  0.00    -0.105 SA
BRANCH  27  28
HETATM   28  C12 UNL     1     175.320 186.400 281.425  1.00  0.00     0.119 C 
BRANCH  28  29
HETATM   29  C13 UNL     1     174.687 185.944 282.712  1.00  0.00    -0.049 A 
HETATM   30  C14 UNL     1     175.476 185.707 283.850  1.00  0.00     0.008 A 
HETATM   31  C15 UNL     1     174.881 185.290 285.046  1.00  0.00     0.001 A 
HETATM   32  C16 UNL     1     173.498 185.109 285.117  1.00  0.00     0.000 A 
HETATM   33  C17 UNL     1     172.705 185.338 283.990  1.00  0.00     0.001 A 
HETATM   34  C18 UNL     1     173.296 185.751 282.789  1.00  0.00     0.008 A 
ENDBRANCH  28  29
ENDBRANCH  27  28
ENDBRANCH   6  27
BRANCH   1  35
HETATM   35  C2  UNL     1     175.387 184.939 273.012  1.00  0.00    -0.026 A 
HETATM   36  C3  UNL     1     176.461 185.249 272.159  1.00  0.00     0.012 A 
HETATM   37  C4  UNL     1     176.461 184.812 270.830  1.00  0.00     0.001 A 
HETATM   38  C5  UNL     1     175.394 184.053 270.346  1.00  0.00     0.000 A 
HETATM   39  C6  UNL     1     174.328 183.726 271.190  1.00  0.00     0.001 A 
HETATM   40  C7  UNL     1     174.322 184.166 272.517  1.00  0.00     0.012 A 
ENDBRANCH   1  35
TORSDOF 10
ENDMDL
MODEL 5
REMARK VINA RESULT:      -8.4      3.233      6.106
REMARK  10 active torsions:
REMARK  status: ('A' for Active; 'I' for Inactive)
REMARK    1  A    between atoms: C1_1  and  C2_2 
REMARK    2  A    between atoms: C11_12  and  S1_13 
REMARK    3  A    between atoms: S1_13  and  C12_14 
REMARK    4  A    between atoms: C12_14  and  C13_15 
REMARK    5  A    between atoms: C19_21  and  C20_22 
REMARK    6  A    between atoms: C20_22  and  N2_23 
REMARK    7  A    between atoms: N2_23  and  C21_24 
REMARK    8  A    between atoms: C21_24  and  C22_25 
REMARK    9  A    between atoms: C25_28  and  C26_29 
REMARK   10  A    between atoms: C26_29  and  N3_30 
ROOT
HETATM    1  C1  UNL     1     174.032 185.994 282.860  1.00  0.00    -0.025 A 
HETATM    2  C8  UNL     1     175.296 186.514 282.525  1.00  0.00     0.014 A 
HETATM    3  C9  UNL     1     175.596 186.855 281.201  1.00  0.00     0.033 A 
HETATM    4  C10 UNL     1     174.633 186.693 280.200  1.00  0.00     0.068 A 
HETATM    5  N1  UNL     1     174.939 186.978 278.908  1.00  0.00    -0.241 NA
HETATM    6  C11 UNL     1     174.047 186.802 277.895  1.00  0.00     0.102 A 
HETATM    7  C19 UNL     1     172.748 186.311 278.171  1.00  0.00     0.006 A 
HETATM    8  C33 UNL     1     172.398 186.070 279.514  1.00  0.00     0.025 A 
HETATM    9  C34 UNL     1     173.348 186.218 280.531  1.00  0.00    -0.006 A 
HETATM   10  C35 UNL     1     173.051 185.872 281.858  1.00  0.00     0.026 A 
ENDROOT
BRANCH   7  11
HETATM   11  C20 UNL     1     171.723 186.096 277.070  1.00  0.00     0.311 C 
BRANCH  11  12
HETATM   12  N2  UNL     1     170.985 187.329 276.755  1.00  0.00     0.091 N 
HETATM   13  H17 UNL     1     171.655 188.131 276.818  1.00  0.00     0.316 HD
BRANCH  12  14
HETATM   14  C21 UNL     1     170.396 187.312 275.405  1.00  0.00     0.308 C 
BRANCH  14  15
HETATM   15  C22 UNL     1     171.445 187.745 274.424  1.00  0.00    -0.030 A 
HETATM   16  C23 UNL     1     171.946 189.054 274.462  1.00  0.00     0.009 A 
HETATM   17  C24 UNL     1     172.828 189.503 273.475  1.00  0.00     0.009 A 
HETATM   18  C25 UNL     1     173.190 188.662 272.410  1.00  0.00    -0.030 A 
HETATM   19  C31 UNL     1     172.722 187.337 272.401  1.00  0.00     0.009 A 
HETATM   20  C32 UNL     1     171.865 186.880 273.404  1.00  0.00     0.009 A 
BRANCH  18  21
HETATM   21  C26 UNL     1     174.061 189.163 271.271  1.00  0.00     0.311 C 
BRANCH  21  22
HETATM   22  N3  UNL     1     173.734 188.590 269.938  1.00  0.00     0.092 N 
HETATM   23  C27 UNL     1     174.913 188.257 269.121  1.00  0.00     0.273 C 
HETATM   24  C28 UNL     1     174.861 189.087 267.839  1.00  0.00     0.032 C 
HETATM   25  C29 UNL     1     173.703 190.047 268.019  1.00  0.00     0.032 C 
HETATM   26  C30 UNL     1     172.849 189.417 269.104  1.00  0.00     0.273 C 
ENDBRANCH  21  22
ENDBRANCH  18  21
ENDBRANCH  14  15
ENDBRANCH  12  14
ENDBRANCH  11  12
ENDBRANCH   7  11
BRANCH   6  27
HETATM   27  S1  UNL     1     174.579 187.197 276.223  1.00  0.00    -0.105 SA
BRANCH  27  28
HETATM   28  C12 UNL     1     174.918 185.458 275.760  1.00  0.00     0.119 C 
BRANCH  28  29
HETATM   29  C13 UNL     1     175.285 185.376 274.302  1.00  0.00    -0.049 A 
HETATM   30  C14 UNL     1     176.267 186.226 273.766  1.00  0.00     0.008 A 
HETATM   31  C15 UNL     1     176.609 186.141 272.412  1.00  0.00     0.001 A 
HETATM   32  C16 UNL     1     175.978 185.209 271.585  1.00  0.00     0.000 A 
HETATM   33  C17 UNL     1     174.997 184.363 272.108  1.00  0.00     0.001 A 
HETATM   34  C18 UNL     1     174.648 184.447 273.462  1.00  0.00     0.008 A 
ENDBRANCH  28  29
ENDBRANCH  27  28
ENDBRANCH   6  27
BRANCH   1  35
HETATM   35  C2  UNL     1     173.750 185.542 284.244  1.00  0.00    -0.026 A 
HETATM   36  C3  UNL     1     174.797 185.084 285.065  1.00  0.00     0.012 A 
HETATM   37  C4  UNL     1     174.540 184.667 286.375  1.00  0.00     0.001 A 
HETATM   38  C5  UNL     1     173.239 184.714 286.879  1.00  0.00     0.000 A 
HETATM   39  C6  UNL     1     172.194 185.183 286.077  1.00  0.00     0.001 A 
HETATM   40  C7  UNL     1     172.445 185.594 284.765  1.00  0.00     0.012 A 
ENDBRANCH   1  35
TORSDOF 10
ENDMDL
MODEL 6
REMARK VINA RESULT:      -8.4      7.937     12.518
REMARK  10 active torsions:
REMARK  status: ('A' for Active; 'I' for Inactive)
REMARK    1  A    between atoms: C1_1  and  C2_2 
REMARK    2  A    between atoms: C11_12  and  S1_13 
REMARK    3  A    between atoms: S1_13  and  C12_14 
REMARK    4  A    between atoms: C12_14  and  C13_15 
REMARK    5  A    between atoms: C19_21  and  C20_22 
REMARK    6  A    between atoms: C20_22  and  N2_23 
REMARK    7  A    between atoms: N2_23  and  C21_24 
REMARK    8  A    between atoms: C21_24  and  C22_25 
REMARK    9  A    between atoms: C25_28  and  C26_29 
REMARK   10  A    between atoms: C26_29  and  N3_30 
ROOT
HETATM    1  C1  UNL     1     173.930 189.566 269.012  1.00  0.00    -0.025 A 
HETATM    2  C8  UNL     1     173.097 189.558 267.878  1.00  0.00     0.014 A 
HETATM    3  C9  UNL     1     173.084 188.456 267.014  1.00  0.00     0.033 A 
HETATM    4  C10 UNL     1     173.890 187.346 267.282  1.00  0.00     0.068 A 
HETATM    5  N1  UNL     1     173.914 186.297 266.419  1.00  0.00    -0.241 NA
HETATM    6  C11 UNL     1     174.709 185.211 266.618  1.00  0.00     0.102 A 
HETATM    7  C19 UNL     1     175.547 185.145 267.758  1.00  0.00     0.006 A 
HETATM    8  C33 UNL     1     175.486 186.198 268.691  1.00  0.00     0.025 A 
HETATM    9  C34 UNL     1     174.692 187.322 268.440  1.00  0.00    -0.006 A 
HETATM   10  C35 UNL     1     174.708 188.430 269.302  1.00  0.00     0.026 A 
ENDROOT
BRANCH   7  11
HETATM   11  C20 UNL     1     176.453 183.953 268.016  1.00  0.00     0.311 C 
BRANCH  11  12
HETATM   12  N2  UNL     1     175.741 182.854 268.686  1.00  0.00     0.091 N 
HETATM   13  H17 UNL     1     175.831 181.999 268.087  1.00  0.00     0.316 HD
BRANCH  12  14
HETATM   14  C21 UNL     1     176.285 182.552 270.021  1.00  0.00     0.308 C 
BRANCH  14  15
HETATM   15  C22 UNL     1     175.698 183.522 271.003  1.00  0.00    -0.030 A 
HETATM   16  C23 UNL     1     174.337 183.455 271.329  1.00  0.00     0.009 A 
HETATM   17  C24 UNL     1     173.755 184.431 272.143  1.00  0.00     0.009 A 
HETATM   18  C25 UNL     1     174.518 185.514 272.612  1.00  0.00    -0.030 A 
HETATM   19  C31 UNL     1     175.892 185.551 272.321  1.00  0.00     0.009 A 
HETATM   20  C32 UNL     1     176.479 184.560 271.532  1.00  0.00     0.009 A 
BRANCH  18  21
HETATM   21  C26 UNL     1     173.884 186.640 273.408  1.00  0.00     0.311 C 
BRANCH  21  22
HETATM   22  N3  UNL     1     173.807 187.941 272.693  1.00  0.00     0.092 N 
HETATM   23  C27 UNL     1     174.500 189.046 273.379  1.00  0.00     0.273 C 
HETATM   24  C28 UNL     1     173.472 190.127 273.710  1.00  0.00     0.032 C 
HETATM   25  C29 UNL     1     172.124 189.536 273.353  1.00  0.00     0.032 C 
HETATM   26  C30 UNL     1     172.445 188.407 272.390  1.00  0.00     0.273 C 
ENDBRANCH  21  22
ENDBRANCH  18  21
ENDBRANCH  14  15
ENDBRANCH  12  14
ENDBRANCH  11  12
ENDBRANCH   7  11
BRANCH   6  27
HETATM   27  S1  UNL     1     174.665 183.896 265.392  1.00  0.00    -0.105 SA
BRANCH  27  28
HETATM   28  C12 UNL     1     176.072 184.550 264.422  1.00  0.00     0.119 C 
BRANCH  28  29
HETATM   29  C13 UNL     1     176.995 183.425 264.033  1.00  0.00    -0.049 A 
HETATM   30  C14 UNL     1     177.601 183.407 262.765  1.00  0.00     0.008 A 
HETATM   31  C15 UNL     1     178.464 182.363 262.412  1.00  0.00     0.001 A 
HETATM   32  C16 UNL     1     178.728 181.333 263.317  1.00  0.00     0.000 A 
HETATM   33  C17 UNL     1     178.127 181.340 264.578  1.00  0.00     0.001 A 
HETATM   34  C18 UNL     1     177.260 182.381 264.935  1.00  0.00     0.008 A 
ENDBRANCH  28  29
ENDBRANCH  27  28
ENDBRANCH   6  27
BRANCH   1  35
HETATM   35  C2  UNL     1     174.015 190.772 269.871  1.00  0.00    -0.026 A 
HETATM   36  C3  UNL     1     175.268 191.241 270.308  1.00  0.00     0.012 A 
HETATM   37  C4  UNL     1     175.356 192.385 271.109  1.00  0.00     0.001 A 
HETATM   38  C5  UNL     1     174.197 193.074 271.470  1.00  0.00     0.000 A 
HETATM   39  C6  UNL     1     172.949 192.626 271.028  1.00  0.00     0.001 A 
HETATM   40  C7  UNL     1     172.856 191.480 270.233  1.00  0.00     0.012 A 
ENDBRANCH   1  35
TORSDOF 10
ENDMDL
MODEL 7
REMARK VINA RESULT:      -8.1      2.739      7.949
REMARK  10 active torsions:
REMARK  status: ('A' for Active; 'I' for Inactive)
REMARK    1  A    between atoms: C1_1  and  C2_2 
REMARK    2  A    between atoms: C11_12  and  S1_13 
REMARK    3  A    between atoms: S1_13  and  C12_14 
REMARK    4  A    between atoms: C12_14  and  C13_15 
REMARK    5  A    between atoms: C19_21  and  C20_22 
REMARK    6  A    between atoms: C20_22  and  N2_23 
REMARK    7  A    between atoms: N2_23  and  C21_24 
REMARK    8  A    between atoms: C21_24  and  C22_25 
REMARK    9  A    between atoms: C25_28  and  C26_29 
REMARK   10  A    between atoms: C26_29  and  N3_30 
ROOT
HETATM    1  C1  UNL     1     171.851 186.679 288.075  1.00  0.00    -0.025 A 
HETATM    2  C8  UNL     1     170.887 187.694 287.932  1.00  0.00     0.014 A 
HETATM    3  C9  UNL     1     170.703 188.331 286.699  1.00  0.00     0.033 A 
HETATM    4  C10 UNL     1     171.470 187.951 285.593  1.00  0.00     0.068 A 
HETATM    5  N1  UNL     1     171.325 188.601 284.409  1.00  0.00    -0.241 NA
HETATM    6  C11 UNL     1     172.073 188.291 283.315  1.00  0.00     0.102 A 
HETATM    7  C19 UNL     1     173.039 187.258 283.386  1.00  0.00     0.006 A 
HETATM    8  C33 UNL     1     173.155 186.536 284.590  1.00  0.00     0.025 A 
HETATM    9  C34 UNL     1     172.404 186.903 285.711  1.00  0.00    -0.006 A 
HETATM   10  C35 UNL     1     172.590 186.270 286.950  1.00  0.00     0.026 A 
ENDROOT
BRANCH   7  11
HETATM   11  C20 UNL     1     173.898 186.883 282.190  1.00  0.00     0.311 C 
BRANCH  11  12
HETATM   12  N2  UNL     1     173.332 185.753 281.436  1.00  0.00     0.091 N 
HETATM   13  H17 UNL     1     172.836 185.130 282.115  1.00  0.00     0.316 HD
BRANCH  12  14
HETATM   14  C21 UNL     1     172.375 186.180 280.402  1.00  0.00     0.308 C 
BRANCH  14  15
HETATM   15  C22 UNL     1     173.054 186.108 279.067  1.00  0.00    -0.030 A 
HETATM   16  C23 UNL     1     174.225 186.842 278.833  1.00  0.00     0.009 A 
HETATM   17  C24 UNL     1     174.793 186.880 277.556  1.00  0.00     0.009 A 
HETATM   18  C25 UNL     1     174.175 186.217 276.483  1.00  0.00    -0.030 A 
HETATM   19  C31 UNL     1     173.028 185.445 276.732  1.00  0.00     0.009 A 
HETATM   20  C32 UNL     1     172.478 185.383 278.014  1.00  0.00     0.009 A 
BRANCH  18  21
HETATM   21  C26 UNL     1     174.715 186.333 275.068  1.00  0.00     0.311 C 
BRANCH  21  22
HETATM   22  N3  UNL     1     175.939 185.530 274.802  1.00  0.00     0.092 N 
HETATM   23  C27 UNL     1     176.560 184.964 276.011  1.00  0.00     0.273 C 
HETATM   24  C28 UNL     1     177.977 185.525 276.132  1.00  0.00     0.032 C 
HETATM   25  C29 UNL     1     178.095 186.577 275.049  1.00  0.00     0.032 C 
HETATM   26  C30 UNL     1     176.996 186.234 274.060  1.00  0.00     0.273 C 
ENDBRANCH  21  22
ENDBRANCH  18  21
ENDBRANCH  14  15
ENDBRANCH  12  14
ENDBRANCH  11  12
ENDBRANCH   7  11
BRANCH   6  27
HETATM   27  S1  UNL     1     171.802 189.238 281.811  1.00  0.00    -0.105 SA
BRANCH  27  28
HETATM   28  C12 UNL     1     172.301 190.837 282.549  1.00  0.00     0.119 C 
BRANCH  28  29
HETATM   29  C13 UNL     1     171.239 191.874 282.298  1.00  0.00    -0.049 A 
HETATM   30  C14 UNL     1     170.897 192.800 283.298  1.00  0.00     0.008 A 
HETATM   31  C15 UNL     1     169.913 193.766 283.056  1.00  0.00     0.001 A 
HETATM   32  C16 UNL     1     169.267 193.816 281.819  1.00  0.00     0.000 A 
HETATM   33  C17 UNL     1     169.596 192.897 280.821  1.00  0.00     0.001 A 
HETATM   34  C18 UNL     1     170.577 191.925 281.059  1.00  0.00     0.008 A 
ENDBRANCH  28  29
ENDBRANCH  27  28
ENDBRANCH   6  27
BRANCH   1  35
HETATM   35  C2  UNL     1     172.112 186.075 289.404  1.00  0.00    -0.026 A 
HETATM   36  C3  UNL     1     173.407 185.642 289.742  1.00  0.00     0.012 A 
HETATM   37  C4  UNL     1     173.663 185.082 290.998  1.00  0.00     0.001 A 
HETATM   38  C5  UNL     1     172.630 184.958 291.929  1.00  0.00     0.000 A 
HETATM   39  C6  UNL     1     171.342 185.400 291.609  1.00  0.00     0.001 A 
HETATM   40  C7  UNL     1     171.082 185.955 290.353  1.00  0.00     0.012 A 
ENDBRANCH   1  35
TORSDOF 10
ENDMDL
MODEL 8
REMARK VINA RESULT:      -8.1      3.020      4.645
REMARK  10 active torsions:
REMARK  status: ('A' for Active; 'I' for Inactive)
REMARK    1  A    between atoms: C1_1  and  C2_2 
REMARK    2  A    between atoms: C11_12  and  S1_13 
REMARK    3  A    between atoms: S1_13  and  C12_14 
REMARK    4  A    between atoms: C12_14  and  C13_15 
REMARK    5  A    between atoms: C19_21  and  C20_22 
REMARK    6  A    between atoms: C20_22  and  N2_23 
REMARK    7  A    between atoms: N2_23  and  C21_24 
REMARK    8  A    between atoms: C21_24  and  C22_25 
REMARK    9  A    between atoms: C25_28  and  C26_29 
REMARK   10  A    between atoms: C26_29  and  N3_30 
ROOT
HETATM    1  C1  UNL     1     173.979 186.026 282.656  1.00  0.00    -0.025 A 
HETATM    2  C8  UNL     1     175.165 186.644 282.220  1.00  0.00     0.014 A 
HETATM    3  C9  UNL     1     175.323 187.010 280.878  1.00  0.00     0.033 A 
HETATM    4  C10 UNL     1     174.293 186.775 279.961  1.00  0.00     0.068 A 
HETATM    5  N1  UNL     1     174.465 187.086 278.650  1.00  0.00    -0.241 NA
HETATM    6  C11 UNL     1     173.506 186.843 277.715  1.00  0.00     0.102 A 
HETATM    7  C19 UNL     1     172.277 186.252 278.097  1.00  0.00     0.006 A 
HETATM    8  C33 UNL     1     172.064 185.981 279.463  1.00  0.00     0.025 A 
HETATM    9  C34 UNL     1     173.083 186.200 280.396  1.00  0.00    -0.006 A 
HETATM   10  C35 UNL     1     172.928 185.830 281.741  1.00  0.00     0.026 A 
ENDROOT
BRANCH   7  11
HETATM   11  C20 UNL     1     171.182 185.959 277.085  1.00  0.00     0.311 C 
BRANCH  11  12
HETATM   12  N2  UNL     1     169.958 186.727 277.361  1.00  0.00     0.091 N 
HETATM   13  H17 UNL     1     170.230 187.591 277.886  1.00  0.00     0.316 HD
BRANCH  12  14
HETATM   14  C21 UNL     1     169.247 187.127 276.134  1.00  0.00     0.308 C 
BRANCH  14  15
HETATM   15  C22 UNL     1     170.037 188.207 275.457  1.00  0.00    -0.030 A 
HETATM   16  C23 UNL     1     170.386 189.368 276.160  1.00  0.00     0.009 A 
HETATM   17  C24 UNL     1     171.010 190.432 275.503  1.00  0.00     0.009 A 
HETATM   18  C25 UNL     1     171.258 190.368 274.122  1.00  0.00    -0.030 A 
HETATM   19  C31 UNL     1     170.948 189.185 273.432  1.00  0.00     0.009 A 
HETATM   20  C32 UNL     1     170.352 188.111 274.094  1.00  0.00     0.009 A 
BRANCH  18  21
HETATM   21  C26 UNL     1     171.837 191.553 273.369  1.00  0.00     0.311 C 
BRANCH  21  22
HETATM   22  N3  UNL     1     173.323 191.583 273.303  1.00  0.00     0.092 N 
HETATM   23  C27 UNL     1     173.905 192.925 273.475  1.00  0.00     0.273 C 
HETATM   24  C28 UNL     1     174.683 193.277 272.208  1.00  0.00     0.032 C 
HETATM   25  C29 UNL     1     174.385 192.168 271.221  1.00  0.00     0.032 C 
HETATM   26  C30 UNL     1     173.904 191.012 272.079  1.00  0.00     0.273 C 
ENDBRANCH  21  22
ENDBRANCH  18  21
ENDBRANCH  14  15
ENDBRANCH  12  14
ENDBRANCH  11  12
ENDBRANCH   7  11
BRANCH   6  27
HETATM   27  S1  UNL     1     173.860 187.282 276.008  1.00  0.00    -0.105 SA
BRANCH  27  28
HETATM   28  C12 UNL     1     175.228 186.079 275.826  1.00  0.00     0.119 C 
BRANCH  28  29
HETATM   29  C13 UNL     1     175.358 185.662 274.385  1.00  0.00    -0.049 A 
HETATM   30  C14 UNL     1     174.289 185.033 273.726  1.00  0.00     0.008 A 
HETATM   31  C15 UNL     1     174.413 184.654 272.385  1.00  0.00     0.001 A 
HETATM   32  C16 UNL     1     175.601 184.900 271.692  1.00  0.00     0.000 A 
HETATM   33  C17 UNL     1     176.671 185.520 272.340  1.00  0.00     0.001 A 
HETATM   34  C18 UNL     1     176.554 185.898 273.684  1.00  0.00     0.008 A 
ENDBRANCH  28  29
ENDBRANCH  27  28
ENDBRANCH   6  27
BRANCH   1  35
HETATM   35  C2  UNL     1     173.853 185.551 284.055  1.00  0.00    -0.026 A 
HETATM   36  C3  UNL     1     172.592 185.514 284.679  1.00  0.00     0.012 A 
HETATM   37  C4  UNL     1     172.464 185.057 285.994  1.00  0.00     0.001 A 
HETATM   38  C5  UNL     1     173.592 184.624 286.694  1.00  0.00     0.000 A 
HETATM   39  C6  UNL     1     174.848 184.641 286.079  1.00  0.00     0.001 A 
HETATM   40  C7  UNL     1     174.980 185.103 284.767  1.00  0.00     0.012 A 
ENDBRANCH   1  35
TORSDOF 10
ENDMDL
MODEL 9
REMARK VINA RESULT:      -8.1      4.676      9.597
REMARK  10 active torsions:
REMARK  status: ('A' for Active; 'I' for Inactive)
REMARK    1  A    between atoms: C1_1  and  C2_2 
REMARK    2  A    between atoms: C11_12  and  S1_13 
REMARK    3  A    between atoms: S1_13  and  C12_14 
REMARK    4  A    between atoms: C12_14  and  C13_15 
REMARK    5  A    between atoms: C19_21  and  C20_22 
REMARK    6  A    between atoms: C20_22  and  N2_23 
REMARK    7  A    between atoms: N2_23  and  C21_24 
REMARK    8  A    between atoms: C21_24  and  C22_25 
REMARK    9  A    between atoms: C25_28  and  C26_29 
REMARK   10  A    between atoms: C26_29  and  N3_30 
ROOT
HETATM    1  C1  UNL     1     169.302 188.549 287.944  1.00  0.00    -0.025 A 
HETATM    2  C8  UNL     1     168.708 189.677 288.539  1.00  0.00     0.014 A 
HETATM    3  C9  UNL     1     168.384 190.799 287.768  1.00  0.00     0.033 A 
HETATM    4  C10 UNL     1     168.636 190.801 286.393  1.00  0.00     0.068 A 
HETATM    5  N1  UNL     1     168.367 191.908 285.652  1.00  0.00    -0.241 NA
HETATM    6  C11 UNL     1     168.628 191.970 284.318  1.00  0.00     0.102 A 
HETATM    7  C19 UNL     1     169.196 190.856 283.654  1.00  0.00     0.006 A 
HETATM    8  C33 UNL     1     169.423 189.681 284.398  1.00  0.00     0.025 A 
HETATM    9  C34 UNL     1     169.186 189.659 285.777  1.00  0.00    -0.006 A 
HETATM   10  C35 UNL     1     169.514 188.537 286.553  1.00  0.00     0.026 A 
ENDROOT
BRANCH   7  11
HETATM   11  C20 UNL     1     169.508 190.884 282.167  1.00  0.00     0.311 C 
BRANCH  11  12
HETATM   12  N2  UNL     1     170.924 191.187 281.907  1.00  0.00     0.091 N 
HETATM   13  H17 UNL     1     171.415 191.254 282.829  1.00  0.00     0.316 HD
BRANCH  12  14
HETATM   14  C21 UNL     1     171.588 190.152 281.094  1.00  0.00     0.308 C 
BRANCH  14  15
HETATM   15  C22 UNL     1     172.286 189.199 282.018  1.00  0.00    -0.030 A 
HETATM   16  C23 UNL     1     172.246 187.821 281.767  1.00  0.00     0.009 A 
HETATM   17  C24 UNL     1     172.785 186.918 282.689  1.00  0.00     0.009 A 
HETATM   18  C25 UNL     1     173.335 187.378 283.896  1.00  0.00    -0.030 A 
HETATM   19  C31 UNL     1     173.414 188.762 284.122  1.00  0.00     0.009 A 
HETATM   20  C32 UNL     1     172.903 189.665 283.188  1.00  0.00     0.009 A 
BRANCH  18  21
HETATM   21  C26 UNL     1     173.828 186.410 284.957  1.00  0.00     0.311 C 
BRANCH  21  22
HETATM   22  N3  UNL     1     172.916 186.244 286.120  1.00  0.00     0.092 N 
HETATM   23  C27 UNL     1     172.957 187.360 287.080  1.00  0.00     0.273 C 
HETATM   24  C28 UNL     1     173.412 186.814 288.434  1.00  0.00     0.032 C 
HETATM   25  C29 UNL     1     173.806 185.373 288.184  1.00  0.00     0.032 C 
HETATM   26  C30 UNL     1     173.105 185.004 286.889  1.00  0.00     0.273 C 
ENDBRANCH  21  22
ENDBRANCH  18  21
ENDBRANCH  14  15
ENDBRANCH  12  14
ENDBRANCH  11  12
ENDBRANCH   7  11
BRANCH   6  27
HETATM   27  S1  UNL     1     168.244 193.498 283.453  1.00  0.00    -0.105 SA
BRANCH  27  28
HETATM   28  C12 UNL     1     169.701 194.403 284.094  1.00  0.00     0.119 C 
BRANCH  28  29
HETATM   29  C13 UNL     1     169.256 195.500 285.025  1.00  0.00    -0.049 A 
HETATM   30  C14 UNL     1     169.126 195.256 286.403  1.00  0.00     0.008 A 
HETATM   31  C15 UNL     1     168.720 196.282 287.264  1.00  0.00     0.001 A 
HETATM   32  C16 UNL     1     168.442 197.554 286.759  1.00  0.00     0.000 A 
HETATM   33  C17 UNL     1     168.564 197.805 285.391  1.00  0.00     0.001 A 
HETATM   34  C18 UNL     1     168.966 196.781 284.524  1.00  0.00     0.008 A 
ENDBRANCH  28  29
ENDBRANCH  27  28
ENDBRANCH   6  27
BRANCH   1  35
HETATM   35  C2  UNL     1     169.733 187.401 288.778  1.00  0.00    -0.026 A 
HETATM   36  C3  UNL     1     170.202 187.615 290.087  1.00  0.00     0.012 A 
HETATM   37  C4  UNL     1     170.600 186.536 290.884  1.00  0.00     0.001 A 
HETATM   38  C5  UNL     1     170.524 185.235 290.383  1.00  0.00     0.000 A 
HETATM   39  C6  UNL     1     170.045 185.010 289.089  1.00  0.00     0.001 A 
HETATM   40  C7  UNL     1     169.652 186.086 288.288  1.00  0.00     0.012 A 
ENDBRANCH   1  35
TORSDOF 10
ENDMDL
