MODEL 1
REMARK VINA RESULT:      -9.2      0.000      0.000
REMARK  10 active torsions:
REMARK  status: ('A' for Active; 'I' for Inactive)
REMARK    1  A    between atoms: C_1  and  C_19 
REMARK    2  A    between atoms: C_5  and  S_31 
REMARK    3  A    between atoms: C_6  and  C_8 
REMARK    4  A    between atoms: C_8  and  N_9 
REMARK    5  A    between atoms: N_9  and  C_10 
REMARK    6  A    between atoms: C_10  and  C_11 
REMARK    7  A    between atoms: C_11  and  C_12 
REMARK    8  A    between atoms: N_15  and  C_18 
REMARK    9  A    between atoms: S_31  and  C_38 
REMARK   10  A    between atoms: C_32  and  C_38 
ROOT
HETATM    1  C           1     171.517 189.451 281.132  0.00  0.00    -0.007 A 
HETATM    2  C           1     170.797 189.188 279.978  0.00  0.00     0.101 A 
HETATM    3  N           1     171.029 188.128 279.172  0.00  0.00    -0.359 N 
ATOM      4  HN          1     170.480 187.965 278.329  1.00  0.00     0.166 HD
HETATM    5  C           1     172.028 187.296 279.541  0.00  0.00     0.077 A 
HETATM    6  C           1     172.803 187.475 280.675  0.00  0.00     0.004 A 
HETATM    7  C           1     172.539 188.575 281.484  0.00  0.00     0.025 A 
ENDROOT
BRANCH   6   8
HETATM    8  C           1     173.894 186.511 281.020  0.00  0.00     0.311 C 
BRANCH   8   9
HETATM    9  N           1     174.886 187.174 281.822  0.00  0.00     0.087 N 
HETATM   10  H           1     175.427 187.808 281.236  0.00  0.00     0.316 HD
BRANCH   9  11
HETATM   11  C           1     175.753 186.166 282.368  0.00  0.00     0.270 C 
BRANCH  11  12
HETATM   12  C           1     174.919 185.109 283.080  0.00  0.00     0.034 C 
BRANCH  12  13
HETATM   13  C           1     174.398 185.672 284.395  0.00  0.00    -0.010 C 
HETATM   14  C           1     172.884 185.499 284.449  0.00  0.00     0.035 C 
HETATM   15  C           1     172.332 185.868 285.824  0.00  0.00     0.273 C 
HETATM   16  N           1     172.988 185.105 286.887  0.00  0.00     0.093 N 
HETATM   17  C           1     174.434 185.326 286.891  0.00  0.00     0.273 C 
HETATM   18  C           1     175.062 184.936 285.554  0.00  0.00     0.035 C 
BRANCH  16  19
HETATM   19  C           1     172.464 185.617 288.124  0.00  0.00     0.223 C 
HETATM   20  C           1     173.542 185.660 289.196  0.00  0.00     0.036 C 
HETATM   21  C           1     173.155 186.813 290.121  0.00  0.00     0.002 C 
HETATM   22  C           1     172.029 187.568 289.416  0.00  0.00     0.002 C 
HETATM   23  C           1     172.056 187.073 287.979  0.00  0.00     0.036 C 
ENDBRANCH  16  19
ENDBRANCH  12  13
ENDBRANCH  11  12
ENDBRANCH   9  11
ENDBRANCH   8   9
ENDBRANCH   6   8
BRANCH   5  24
HETATM   24  S           1     172.375 185.859 278.487  0.00  0.00    -0.107 SA
BRANCH  24  25
HETATM   25  C           1     173.018 186.860 277.116  0.00  0.00     0.119 C 
BRANCH  25  26
HETATM   26  C           1     174.358 186.336 276.702  0.00  0.00    -0.049 A 
HETATM   27  C           1     175.517 186.835 277.298  0.00  0.00     0.008 A 
HETATM   28  C           1     176.765 186.347 276.913  0.00  0.00     0.001 A 
HETATM   29  C           1     176.856 185.361 275.930  0.00  0.00     0.000 A 
HETATM   30  C           1     175.697 184.862 275.335  0.00  0.00     0.001 A 
HETATM   31  C           1     174.449 185.350 275.719  0.00  0.00     0.008 A 
ENDBRANCH  25  26
ENDBRANCH  24  25
ENDBRANCH   5  24
BRANCH   1  32
HETATM   32  C           1     171.237 190.518 281.888  0.00  0.00     0.014 A 
HETATM   33  C           1     171.948 191.705 281.709  0.00  0.00     0.130 A 
HETATM   34  F           1     172.898 191.774 280.795  0.00  0.00    -0.205 F 
HETATM   35  C           1     171.657 192.818 282.497  0.00  0.00     0.085 A 
HETATM   36  C           1     170.653 192.745 283.463  0.00  0.00     0.119 A 
HETATM   37  F           1     170.376 193.798 284.209  0.00  0.00    -0.206 F 
HETATM   38  C           1     169.942 191.558 283.641  0.00  0.00     0.043 A 
HETATM   39  C           1     170.234 190.445 282.854  0.00  0.00     0.018 A 
ENDBRANCH   1  32
TORSDOF 10
ENDMDL
MODEL 2
REMARK VINA RESULT:      -8.9      2.334      9.052
REMARK  10 active torsions:
REMARK  status: ('A' for Active; 'I' for Inactive)
REMARK    1  A    between atoms: C_1  and  C_19 
REMARK    2  A    between atoms: C_5  and  S_31 
REMARK    3  A    between atoms: C_6  and  C_8 
REMARK    4  A    between atoms: C_8  and  N_9 
REMARK    5  A    between atoms: N_9  and  C_10 
REMARK    6  A    between atoms: C_10  and  C_11 
REMARK    7  A    between atoms: C_11  and  C_12 
REMARK    8  A    between atoms: N_15  and  C_18 
REMARK    9  A    between atoms: S_31  and  C_38 
REMARK   10  A    between atoms: C_32  and  C_38 
ROOT
HETATM    1  C           1     172.680 189.387 282.424  0.00  0.00    -0.007 A 
HETATM    2  C           1     173.607 189.224 283.439  0.00  0.00     0.101 A 
HETATM    3  N           1     174.545 188.251 283.454  0.00  0.00    -0.359 N 
ATOM      4  HN          1     175.212 188.161 284.219  1.00  0.00     0.166 HD
HETATM    5  C           1     174.551 187.404 282.401  0.00  0.00     0.077 A 
HETATM    6  C           1     173.666 187.485 281.339  0.00  0.00     0.004 A 
HETATM    7  C           1     172.713 188.498 281.354  0.00  0.00     0.025 A 
ENDROOT
BRANCH   6   8
HETATM    8  C           1     173.733 186.510 280.206  0.00  0.00     0.311 C 
BRANCH   8   9
HETATM    9  N           1     172.424 185.967 279.962  0.00  0.00     0.087 N 
HETATM   10  H           1     172.271 185.163 280.569  0.00  0.00     0.316 HD
BRANCH   9  11
HETATM   11  C           1     172.375 185.547 278.587  0.00  0.00     0.270 C 
BRANCH  11  12
HETATM   12  C           1     173.399 186.333 277.778  0.00  0.00     0.034 C 
BRANCH  12  13
HETATM   13  C           1     173.498 185.746 276.376  0.00  0.00    -0.010 C 
HETATM   14  C           1     172.982 186.767 275.368  0.00  0.00     0.035 C 
HETATM   15  C           1     173.238 186.310 273.934  0.00  0.00     0.273 C 
HETATM   16  N           1     174.655 186.018 273.710  0.00  0.00     0.093 N 
HETATM   17  C           1     175.139 184.982 274.623  0.00  0.00     0.273 C 
HETATM   18  C           1     174.952 185.392 276.083  0.00  0.00     0.035 C 
BRANCH  16  19
HETATM   19  C           1     174.747 185.499 272.372  0.00  0.00     0.223 C 
HETATM   20  C           1     176.198 185.362 271.939  0.00  0.00     0.036 C 
HETATM   21  C           1     176.221 184.206 270.941  0.00  0.00     0.002 C 
HETATM   22  C           1     174.850 183.537 271.028  0.00  0.00     0.002 C 
HETATM   23  C           1     174.225 184.074 272.307  0.00  0.00     0.036 C 
ENDBRANCH  16  19
ENDBRANCH  12  13
ENDBRANCH  11  12
ENDBRANCH   9  11
ENDBRANCH   8   9
ENDBRANCH   6   8
BRANCH   5  24
HETATM   24  S           1     175.794 186.081 282.378  0.00  0.00    -0.107 SA
BRANCH  24  25
HETATM   25  C           1     174.579 184.761 282.657  0.00  0.00     0.119 C 
BRANCH  25  26
HETATM   26  C           1     174.071 184.839 284.062  0.00  0.00    -0.049 A 
HETATM   27  C           1     174.937 184.608 285.131  0.00  0.00     0.008 A 
HETATM   28  C           1     174.463 184.680 286.441  0.00  0.00     0.001 A 
HETATM   29  C           1     173.124 184.983 286.683  0.00  0.00     0.000 A 
HETATM   30  C           1     172.258 185.214 285.614  0.00  0.00     0.001 A 
HETATM   31  C           1     172.731 185.141 284.304  0.00  0.00     0.008 A 
ENDBRANCH  25  26
ENDBRANCH  24  25
ENDBRANCH   5  24
BRANCH   1  32
HETATM   32  C           1     171.776 190.372 282.470  0.00  0.00     0.014 A 
HETATM   33  C           1     172.044 191.592 281.847  0.00  0.00     0.130 A 
HETATM   34  F           1     173.188 191.774 281.215  0.00  0.00    -0.205 F 
HETATM   35  C           1     171.103 192.620 281.895  0.00  0.00     0.085 A 
HETATM   36  C           1     169.894 192.428 282.565  0.00  0.00     0.119 A 
HETATM   37  F           1     169.003 193.401 282.610  0.00  0.00    -0.206 F 
HETATM   38  C           1     169.627 191.209 283.186  0.00  0.00     0.043 A 
HETATM   39  C           1     170.568 190.180 283.139  0.00  0.00     0.018 A 
ENDBRANCH   1  32
TORSDOF 10
ENDMDL
MODEL 3
REMARK VINA RESULT:      -8.8      6.554     10.834
REMARK  10 active torsions:
REMARK  status: ('A' for Active; 'I' for Inactive)
REMARK    1  A    between atoms: C_1  and  C_19 
REMARK    2  A    between atoms: C_5  and  S_31 
REMARK    3  A    between atoms: C_6  and  C_8 
REMARK    4  A    between atoms: C_8  and  N_9 
REMARK    5  A    between atoms: N_9  and  C_10 
REMARK    6  A    between atoms: C_10  and  C_11 
REMARK    7  A    between atoms: C_11  and  C_12 
REMARK    8  A    between atoms: N_15  and  C_18 
REMARK    9  A    between atoms: S_31  and  C_38 
REMARK   10  A    between atoms: C_32  and  C_38 
ROOT
HETATM    1  C           1     175.633 185.600 272.439  0.00  0.00    -0.007 A 
HETATM    2  C           1     176.143 184.811 271.421  0.00  0.00     0.101 A 
HETATM    3  N           1     175.560 184.676 270.209  0.00  0.00    -0.359 N 
ATOM      4  HN          1     175.963 184.086 269.483  1.00  0.00     0.166 HD
HETATM    5  C           1     174.414 185.364 270.011  0.00  0.00     0.077 A 
HETATM    6  C           1     173.827 186.178 270.966  0.00  0.00     0.004 A 
HETATM    7  C           1     174.451 186.296 272.203  0.00  0.00     0.025 A 
ENDROOT
BRANCH   6   8
HETATM    8  C           1     172.555 186.910 270.675  0.00  0.00     0.311 C 
BRANCH   8   9
HETATM    9  N           1     172.752 188.319 270.884  0.00  0.00     0.087 N 
HETATM   10  H           1     173.629 188.468 271.382  0.00  0.00     0.316 HD
BRANCH   9  11
HETATM   11  C           1     171.657 188.800 271.682  0.00  0.00     0.270 C 
BRANCH  11  12
HETATM   12  C           1     172.183 189.759 272.742  0.00  0.00     0.034 C 
BRANCH  12  13
HETATM   13  C           1     172.099 189.098 274.112  0.00  0.00    -0.010 C 
HETATM   14  C           1     171.118 187.933 274.047  0.00  0.00     0.035 C 
HETATM   15  C           1     171.141 187.116 275.337  0.00  0.00     0.273 C 
HETATM   16  N           1     172.493 186.649 275.651  0.00  0.00     0.093 N 
HETATM   17  C           1     173.426 187.768 275.791  0.00  0.00     0.273 C 
HETATM   18  C           1     173.486 188.608 274.517  0.00  0.00     0.035 C 
BRANCH  16  19
HETATM   19  C           1     172.400 185.995 276.929  0.00  0.00     0.223 C 
HETATM   20  C           1     173.559 186.393 277.830  0.00  0.00     0.036 C 
HETATM   21  C           1     173.021 186.292 279.256  0.00  0.00     0.002 C 
HETATM   22  C           1     171.510 186.106 279.133  0.00  0.00     0.002 C 
HETATM   23  C           1     171.179 186.473 277.695  0.00  0.00     0.036 C 
ENDBRANCH  16  19
ENDBRANCH  12  13
ENDBRANCH  11  12
ENDBRANCH   9  11
ENDBRANCH   8   9
ENDBRANCH   6   8
BRANCH   5  24
HETATM   24  S           1     173.596 185.213 268.398  0.00  0.00    -0.107 SA
BRANCH  24  25
HETATM   25  C           1     174.729 186.367 267.572  0.00  0.00     0.119 C 
BRANCH  25  26
HETATM   26  C           1     174.132 187.740 267.575  0.00  0.00    -0.049 A 
HETATM   27  C           1     172.838 187.938 267.092  0.00  0.00     0.008 A 
HETATM   28  C           1     172.282 189.217 267.094  0.00  0.00     0.001 A 
HETATM   29  C           1     173.018 190.298 267.578  0.00  0.00     0.000 A 
HETATM   30  C           1     174.312 190.099 268.061  0.00  0.00     0.001 A 
HETATM   31  C           1     174.869 188.821 268.059  0.00  0.00     0.008 A 
ENDBRANCH  25  26
ENDBRANCH  24  25
ENDBRANCH   5  24
BRANCH   1  32
HETATM   32  C           1     176.260 185.691 273.617  0.00  0.00     0.014 A 
HETATM   33  C           1     175.690 185.121 274.755  0.00  0.00     0.130 A 
HETATM   34  F           1     174.532 184.493 274.671  0.00  0.00    -0.205 F 
HETATM   35  C           1     176.343 185.216 275.984  0.00  0.00     0.085 A 
HETATM   36  C           1     177.567 185.880 276.074  0.00  0.00     0.119 A 
HETATM   37  F           1     178.185 185.970 277.236  0.00  0.00    -0.206 F 
HETATM   38  C           1     178.136 186.449 274.935  0.00  0.00     0.043 A 
HETATM   39  C           1     177.483 186.355 273.706  0.00  0.00     0.018 A 
ENDBRANCH   1  32
TORSDOF 10
ENDMDL
MODEL 4
REMARK VINA RESULT:      -8.8      9.185     13.164
REMARK  10 active torsions:
REMARK  status: ('A' for Active; 'I' for Inactive)
REMARK    1  A    between atoms: C_1  and  C_19 
REMARK    2  A    between atoms: C_5  and  S_31 
REMARK    3  A    between atoms: C_6  and  C_8 
REMARK    4  A    between atoms: C_8  and  N_9 
REMARK    5  A    between atoms: N_9  and  C_10 
REMARK    6  A    between atoms: C_10  and  C_11 
REMARK    7  A    between atoms: C_11  and  C_12 
REMARK    8  A    between atoms: N_15  and  C_18 
REMARK    9  A    between atoms: S_31  and  C_38 
REMARK   10  A    between atoms: C_32  and  C_38 
ROOT
HETATM    1  C           1     174.571 185.566 273.316  0.00  0.00    -0.007 A 
HETATM    2  C           1     173.476 186.399 273.477  0.00  0.00     0.101 A 
HETATM    3  N           1     172.429 186.439 272.624  0.00  0.00    -0.359 N 
ATOM      4  HN          1     171.639 187.066 272.773  1.00  0.00     0.166 HD
HETATM    5  C           1     172.483 185.606 271.562  0.00  0.00     0.077 A 
HETATM    6  C           1     173.533 184.737 271.316  0.00  0.00     0.004 A 
HETATM    7  C           1     174.596 184.719 272.212  0.00  0.00     0.025 A 
ENDROOT
BRANCH   6   8
HETATM    8  C           1     173.524 183.842 270.116  0.00  0.00     0.311 C 
BRANCH   8   9
HETATM    9  N           1     174.656 184.144 269.283  0.00  0.00     0.087 N 
HETATM   10  H           1     175.409 184.523 269.856  0.00  0.00     0.316 HD
BRANCH   9  11
HETATM   11  C           1     174.240 185.130 268.322  0.00  0.00     0.270 C 
BRANCH  11  12
HETATM   12  C           1     175.263 186.258 268.275  0.00  0.00     0.034 C 
BRANCH  12  13
HETATM   13  C           1     174.616 187.552 268.749  0.00  0.00    -0.010 C 
HETATM   14  C           1     174.999 187.801 270.203  0.00  0.00     0.035 C 
HETATM   15  C           1     174.540 189.180 270.670  0.00  0.00     0.273 C 
HETATM   16  N           1     175.055 190.240 269.801  0.00  0.00     0.093 N 
HETATM   17  C           1     174.627 190.050 268.414  0.00  0.00     0.273 C 
HETATM   18  C           1     175.090 188.702 267.866  0.00  0.00     0.035 C 
BRANCH  16  19
HETATM   19  C           1     174.469 191.463 270.276  0.00  0.00     0.223 C 
HETATM   20  C           1     173.401 191.184 271.323  0.00  0.00     0.036 C 
HETATM   21  C           1     173.393 192.409 272.237  0.00  0.00     0.002 C 
HETATM   22  C           1     174.625 193.231 271.862  0.00  0.00     0.002 C 
HETATM   23  C           1     175.490 192.297 271.030  0.00  0.00     0.036 C 
ENDBRANCH  16  19
ENDBRANCH  12  13
ENDBRANCH  11  12
ENDBRANCH   9  11
ENDBRANCH   8   9
ENDBRANCH   6   8
BRANCH   5  24
HETATM   24  S           1     171.097 185.626 270.390  0.00  0.00    -0.107 SA
BRANCH  24  25
HETATM   25  C           1     170.846 187.419 270.521  0.00  0.00     0.119 C 
BRANCH  25  26
HETATM   26  C           1     171.040 188.050 269.178  0.00  0.00    -0.049 A 
HETATM   27  C           1     171.224 187.248 268.051  0.00  0.00     0.008 A 
HETATM   28  C           1     171.405 187.836 266.800  0.00  0.00     0.001 A 
HETATM   29  C           1     171.403 189.225 266.673  0.00  0.00     0.000 A 
HETATM   30  C           1     171.219 190.026 267.800  0.00  0.00     0.001 A 
HETATM   31  C           1     171.038 189.439 269.052  0.00  0.00     0.008 A 
ENDBRANCH  25  26
ENDBRANCH  24  25
ENDBRANCH   5  24
BRANCH   1  32
HETATM   32  C           1     175.576 185.574 274.198  0.00  0.00     0.014 A 
HETATM   33  C           1     176.752 186.266 273.907  0.00  0.00     0.130 A 
HETATM   34  F           1     176.874 186.910 272.762  0.00  0.00    -0.205 F 
HETATM   35  C           1     177.801 186.274 274.827  0.00  0.00     0.085 A 
HETATM   36  C           1     177.673 185.592 276.037  0.00  0.00     0.119 A 
HETATM   37  F           1     178.665 185.600 276.908  0.00  0.00    -0.206 F 
HETATM   38  C           1     176.497 184.902 276.327  0.00  0.00     0.043 A 
HETATM   39  C           1     175.448 184.892 275.408  0.00  0.00     0.018 A 
ENDBRANCH   1  32
TORSDOF 10
ENDMDL
MODEL 5
REMARK VINA RESULT:      -8.5      9.343     16.049
REMARK  10 active torsions:
REMARK  status: ('A' for Active; 'I' for Inactive)
REMARK    1  A    between atoms: C_1  and  C_19 
REMARK    2  A    between atoms: C_5  and  S_31 
REMARK    3  A    between atoms: C_6  and  C_8 
REMARK    4  A    between atoms: C_8  and  N_9 
REMARK    5  A    between atoms: N_9  and  C_10 
REMARK    6  A    between atoms: C_10  and  C_11 
REMARK    7  A    between atoms: C_11  and  C_12 
REMARK    8  A    between atoms: N_15  and  C_18 
REMARK    9  A    between atoms: S_31  and  C_38 
REMARK   10  A    between atoms: C_32  and  C_38 
ROOT
HETATM    1  C           1     175.613 185.754 272.714  0.00  0.00    -0.007 A 
HETATM    2  C           1     174.586 186.652 272.473  0.00  0.00     0.101 A 
HETATM    3  N           1     173.862 186.678 271.333  0.00  0.00    -0.359 N 
ATOM      4  HN          1     173.112 187.353 271.188  1.00  0.00     0.166 HD
HETATM    5  C           1     174.183 185.762 270.392  0.00  0.00     0.077 A 
HETATM    6  C           1     175.193 184.825 270.541  0.00  0.00     0.004 A 
HETATM    7  C           1     175.920 184.824 271.726  0.00  0.00     0.025 A 
ENDROOT
BRANCH   6   8
HETATM    8  C           1     175.492 183.841 269.454  0.00  0.00     0.311 C 
BRANCH   8   9
HETATM    9  N           1     176.858 183.994 269.030  0.00  0.00     0.087 N 
HETATM   10  H           1     177.415 184.357 269.803  0.00  0.00     0.316 HD
BRANCH   9  11
HETATM   11  C           1     176.874 184.934 267.942  0.00  0.00     0.270 C 
BRANCH  11  12
HETATM   12  C           1     176.962 184.183 266.621  0.00  0.00     0.034 C 
BRANCH  12  13
HETATM   13  C           1     175.847 184.649 265.694  0.00  0.00    -0.010 C 
HETATM   14  C           1     176.271 184.424 264.247  0.00  0.00     0.035 C 
HETATM   15  C           1     175.117 184.692 263.283  0.00  0.00     0.273 C 
HETATM   16  N           1     173.940 183.888 263.619  0.00  0.00     0.093 N 
HETATM   17  C           1     173.481 184.156 264.983  0.00  0.00     0.273 C 
HETATM   18  C           1     174.575 183.868 266.008  0.00  0.00     0.035 C 
BRANCH  16  19
HETATM   19  C           1     172.902 184.309 262.717  0.00  0.00     0.223 C 
HETATM   20  C           1     171.745 184.940 263.476  0.00  0.00     0.036 C 
HETATM   21  C           1     171.125 185.950 262.511  0.00  0.00     0.002 C 
HETATM   22  C           1     172.094 186.070 261.336  0.00  0.00     0.002 C 
HETATM   23  C           1     173.388 185.433 261.818  0.00  0.00     0.036 C 
ENDBRANCH  16  19
ENDBRANCH  12  13
ENDBRANCH  11  12
ENDBRANCH   9  11
ENDBRANCH   8   9
ENDBRANCH   6   8
BRANCH   5  24
HETATM   24  S           1     173.236 185.760 268.844  0.00  0.00    -0.107 SA
BRANCH  24  25
HETATM   25  C           1     174.124 187.184 268.150  0.00  0.00     0.119 C 
BRANCH  25  26
HETATM   26  C           1     173.137 188.206 267.680  0.00  0.00    -0.049 A 
HETATM   27  C           1     173.289 189.543 268.051  0.00  0.00     0.008 A 
HETATM   28  C           1     172.370 190.496 267.614  0.00  0.00     0.001 A 
HETATM   29  C           1     171.299 190.115 266.807  0.00  0.00     0.000 A 
HETATM   30  C           1     171.148 188.779 266.436  0.00  0.00     0.001 A 
HETATM   31  C           1     172.066 187.825 266.873  0.00  0.00     0.008 A 
ENDBRANCH  25  26
ENDBRANCH  24  25
ENDBRANCH   5  24
BRANCH   1  32
HETATM   32  C           1     176.292 185.781 273.866  0.00  0.00     0.014 A 
HETATM   33  C           1     175.733 185.227 275.017  0.00  0.00     0.130 A 
HETATM   34  F           1     174.533 184.678 274.970  0.00  0.00    -0.205 F 
HETATM   35  C           1     176.440 185.255 276.219  0.00  0.00     0.085 A 
HETATM   36  C           1     177.708 185.836 276.269  0.00  0.00     0.119 A 
HETATM   37  F           1     178.377 185.863 277.406  0.00  0.00    -0.206 F 
HETATM   38  C           1     178.267 186.390 275.118  0.00  0.00     0.043 A 
HETATM   39  C           1     177.559 186.362 273.916  0.00  0.00     0.018 A 
ENDBRANCH   1  32
TORSDOF 10
ENDMDL
MODEL 6
REMARK VINA RESULT:      -8.5      8.922     12.395
REMARK  10 active torsions:
REMARK  status: ('A' for Active; 'I' for Inactive)
REMARK    1  A    between atoms: C_1  and  C_19 
REMARK    2  A    between atoms: C_5  and  S_31 
REMARK    3  A    between atoms: C_6  and  C_8 
REMARK    4  A    between atoms: C_8  and  N_9 
REMARK    5  A    between atoms: N_9  and  C_10 
REMARK    6  A    between atoms: C_10  and  C_11 
REMARK    7  A    between atoms: C_11  and  C_12 
REMARK    8  A    between atoms: N_15  and  C_18 
REMARK    9  A    between atoms: S_31  and  C_38 
REMARK   10  A    between atoms: C_32  and  C_38 
ROOT
HETATM    1  C           1     175.524 185.571 272.377  0.00  0.00    -0.007 A 
HETATM    2  C           1     176.213 184.940 271.354  0.00  0.00     0.101 A 
HETATM    3  N           1     175.727 184.785 270.103  0.00  0.00    -0.359 N 
ATOM      4  HN          1     176.262 184.314 269.374  1.00  0.00     0.166 HD
HETATM    5  C           1     174.494 185.285 269.868  0.00  0.00     0.077 A 
HETATM    6  C           1     173.728 185.931 270.825  0.00  0.00     0.004 A 
HETATM    7  C           1     174.257 186.076 272.103  0.00  0.00     0.025 A 
ENDROOT
BRANCH   6   8
HETATM    8  C           1     172.368 186.460 270.491  0.00  0.00     0.311 C 
BRANCH   8   9
HETATM    9  N           1     171.459 186.156 271.563  0.00  0.00     0.087 N 
HETATM   10  H           1     170.832 185.406 271.274  0.00  0.00     0.316 HD
BRANCH   9  11
HETATM   11  C           1     170.694 187.342 271.837  0.00  0.00     0.270 C 
BRANCH  11  12
HETATM   12  C           1     171.292 188.520 271.079  0.00  0.00     0.034 C 
BRANCH  12  13
HETATM   13  C           1     171.835 189.541 272.070  0.00  0.00    -0.010 C 
HETATM   14  C           1     173.254 189.926 271.667  0.00  0.00     0.035 C 
HETATM   15  C           1     173.774 191.088 272.510  0.00  0.00     0.273 C 
HETATM   16  N           1     172.876 192.242 272.444  0.00  0.00     0.093 N 
HETATM   17  C           1     171.529 191.899 272.903  0.00  0.00     0.273 C 
HETATM   18  C           1     170.928 190.767 272.074  0.00  0.00     0.035 C 
BRANCH  16  19
HETATM   19  C           1     173.414 193.216 273.356  0.00  0.00     0.223 C 
HETATM   20  C           1     173.616 192.614 274.738  0.00  0.00     0.036 C 
HETATM   21  C           1     174.784 193.384 275.353  0.00  0.00     0.002 C 
HETATM   22  C           1     175.394 194.212 274.223  0.00  0.00     0.002 C 
HETATM   23  C           1     174.817 193.627 272.943  0.00  0.00     0.036 C 
ENDBRANCH  16  19
ENDBRANCH  12  13
ENDBRANCH  11  12
ENDBRANCH   9  11
ENDBRANCH   8   9
ENDBRANCH   6   8
BRANCH   5  24
HETATM   24  S           1     173.801 185.099 268.201  0.00  0.00    -0.107 SA
BRANCH  24  25
HETATM   25  C           1     174.856 186.388 267.480  0.00  0.00     0.119 C 
BRANCH  25  26
HETATM   26  C           1     174.133 187.699 267.510  0.00  0.00    -0.049 A 
HETATM   27  C           1     172.844 187.796 266.984  0.00  0.00     0.008 A 
HETATM   28  C           1     172.171 189.017 267.011  0.00  0.00     0.001 A 
HETATM   29  C           1     172.785 190.141 267.563  0.00  0.00     0.000 A 
HETATM   30  C           1     174.073 190.043 268.089  0.00  0.00     0.001 A 
HETATM   31  C           1     174.747 188.823 268.061  0.00  0.00     0.008 A 
ENDBRANCH  25  26
ENDBRANCH  24  25
ENDBRANCH   5  24
BRANCH   1  32
HETATM   32  C           1     176.063 185.693 273.595  0.00  0.00     0.014 A 
HETATM   33  C           1     175.361 185.246 274.715  0.00  0.00     0.130 A 
HETATM   34  F           1     174.165 184.705 274.573  0.00  0.00    -0.205 F 
HETATM   35  C           1     175.922 185.373 275.985  0.00  0.00     0.085 A 
HETATM   36  C           1     177.186 185.946 276.136  0.00  0.00     0.119 A 
HETATM   37  F           1     177.717 186.066 277.338  0.00  0.00    -0.206 F 
HETATM   38  C           1     177.887 186.391 275.016  0.00  0.00     0.043 A 
HETATM   39  C           1     177.326 186.265 273.745  0.00  0.00     0.018 A 
ENDBRANCH   1  32
TORSDOF 10
ENDMDL
MODEL 7
REMARK VINA RESULT:      -8.4      3.435      8.306
REMARK  10 active torsions:
REMARK  status: ('A' for Active; 'I' for Inactive)
REMARK    1  A    between atoms: C_1  and  C_19 
REMARK    2  A    between atoms: C_5  and  S_31 
REMARK    3  A    between atoms: C_6  and  C_8 
REMARK    4  A    between atoms: C_8  and  N_9 
REMARK    5  A    between atoms: N_9  and  C_10 
REMARK    6  A    between atoms: C_10  and  C_11 
REMARK    7  A    between atoms: C_11  and  C_12 
REMARK    8  A    between atoms: N_15  and  C_18 
REMARK    9  A    between atoms: S_31  and  C_38 
REMARK   10  A    between atoms: C_32  and  C_38 
ROOT
HETATM    1  C           1     170.536 187.196 289.159  0.00  0.00    -0.007 A 
HETATM    2  C           1     169.862 187.901 288.175  0.00  0.00     0.101 A 
HETATM    3  N           1     170.357 188.125 286.937  0.00  0.00    -0.359 N 
ATOM      4  HN          1     169.834 188.650 286.237  1.00  0.00     0.166 HD
HETATM    5  C           1     171.582 187.619 286.676  0.00  0.00     0.077 A 
HETATM    6  C           1     172.332 186.901 287.593  0.00  0.00     0.004 A 
HETATM    7  C           1     171.795 186.687 288.858  0.00  0.00     0.025 A 
ENDROOT
BRANCH   6   8
HETATM    8  C           1     173.684 186.370 287.232  0.00  0.00     0.311 C 
BRANCH   8   9
HETATM    9  N           1     173.655 184.933 287.247  0.00  0.00     0.087 N 
HETATM   10  H           1     174.472 184.581 287.744  0.00  0.00     0.316 HD
BRANCH   9  11
HETATM   11  C           1     173.692 184.481 285.882  0.00  0.00     0.270 C 
BRANCH  11  12
HETATM   12  C           1     175.015 184.888 285.246  0.00  0.00     0.034 C 
BRANCH  12  13
HETATM   13  C           1     174.820 185.087 283.749  0.00  0.00    -0.010 C 
HETATM   14  C           1     173.328 185.136 283.440  0.00  0.00     0.035 C 
HETATM   15  C           1     173.075 185.527 281.986  0.00  0.00     0.273 C 
HETATM   16  N           1     173.725 186.797 281.652  0.00  0.00     0.093 N 
HETATM   17  C           1     175.170 186.733 281.874  0.00  0.00     0.273 C 
HETATM   18  C           1     175.498 186.385 283.324  0.00  0.00     0.035 C 
BRANCH  16  19
HETATM   19  C           1     173.506 186.996 280.245  0.00  0.00     0.223 C 
HETATM   20  C           1     174.826 187.178 279.510  0.00  0.00     0.036 C 
HETATM   21  C           1     174.582 186.652 278.096  0.00  0.00     0.002 C 
HETATM   22  C           1     173.231 185.940 278.130  0.00  0.00     0.002 C 
HETATM   23  C           1     172.917 185.751 279.606  0.00  0.00     0.036 C 
ENDBRANCH  16  19
ENDBRANCH  12  13
ENDBRANCH  11  12
ENDBRANCH   9  11
ENDBRANCH   8   9
ENDBRANCH   6   8
BRANCH   5  24
HETATM   24  S           1     172.286 187.896 285.026  0.00  0.00    -0.107 SA
BRANCH  24  25
HETATM   25  C           1     170.877 188.886 284.451  0.00  0.00     0.119 C 
BRANCH  25  26
HETATM   26  C           1     171.321 189.791 283.345  0.00  0.00    -0.049 A 
HETATM   27  C           1     172.589 189.636 282.784  0.00  0.00     0.008 A 
HETATM   28  C           1     173.004 190.479 281.754  0.00  0.00     0.001 A 
HETATM   29  C           1     172.152 191.478 281.284  0.00  0.00     0.000 A 
HETATM   30  C           1     170.884 191.633 281.845  0.00  0.00     0.001 A 
HETATM   31  C           1     170.469 190.791 282.876  0.00  0.00     0.008 A 
ENDBRANCH  25  26
ENDBRANCH  24  25
ENDBRANCH   5  24
BRANCH   1  32
HETATM   32  C           1     169.990 187.009 290.365  0.00  0.00     0.014 A 
HETATM   33  C           1     170.583 187.575 291.494  0.00  0.00     0.130 A 
HETATM   34  F           1     171.683 188.293 291.372  0.00  0.00    -0.205 F 
HETATM   35  C           1     170.014 187.379 292.752  0.00  0.00     0.085 A 
HETATM   36  C           1     168.851 186.618 292.881  0.00  0.00     0.119 A 
HETATM   37  F           1     168.312 186.433 294.072  0.00  0.00    -0.206 F 
HETATM   38  C           1     168.259 186.053 291.753  0.00  0.00     0.043 A 
HETATM   39  C           1     168.828 186.248 290.494  0.00  0.00     0.018 A 
ENDBRANCH   1  32
TORSDOF 10
ENDMDL
MODEL 8
REMARK VINA RESULT:      -8.4      9.381     16.510
REMARK  10 active torsions:
REMARK  status: ('A' for Active; 'I' for Inactive)
REMARK    1  A    between atoms: C_1  and  C_19 
REMARK    2  A    between atoms: C_5  and  S_31 
REMARK    3  A    between atoms: C_6  and  C_8 
REMARK    4  A    between atoms: C_8  and  N_9 
REMARK    5  A    between atoms: N_9  and  C_10 
REMARK    6  A    between atoms: C_10  and  C_11 
REMARK    7  A    between atoms: C_11  and  C_12 
REMARK    8  A    between atoms: N_15  and  C_18 
REMARK    9  A    between atoms: S_31  and  C_38 
REMARK   10  A    between atoms: C_32  and  C_38 
ROOT
HETATM    1  C           1     175.386 185.579 272.608  0.00  0.00    -0.007 A 
HETATM    2  C           1     174.617 186.633 272.143  0.00  0.00     0.101 A 
HETATM    3  N           1     173.900 186.594 270.998  0.00  0.00    -0.359 N 
ATOM      4  HN          1     173.345 187.389 270.685  1.00  0.00     0.166 HD
HETATM    5  C           1     173.956 185.445 270.290  0.00  0.00     0.077 A 
HETATM    6  C           1     174.695 184.337 270.673  0.00  0.00     0.004 A 
HETATM    7  C           1     175.422 184.409 271.856  0.00  0.00     0.025 A 
ENDROOT
BRANCH   6   8
HETATM    8  C           1     174.710 183.097 269.836  0.00  0.00     0.311 C 
BRANCH   8   9
HETATM    9  N           1     176.041 182.864 269.344  0.00  0.00     0.087 N 
HETATM   10  H           1     176.660 183.602 269.678  0.00  0.00     0.316 HD
BRANCH   9  11
HETATM   11  C           1     175.988 182.895 267.907  0.00  0.00     0.270 C 
BRANCH  11  12
HETATM   12  C           1     176.736 184.119 267.396  0.00  0.00     0.034 C 
BRANCH  12  13
HETATM   13  C           1     177.230 183.859 265.980  0.00  0.00    -0.010 C 
HETATM   14  C           1     177.368 182.356 265.766  0.00  0.00     0.035 C 
HETATM   15  C           1     177.673 182.029 264.305  0.00  0.00     0.273 C 
HETATM   16  N           1     176.666 182.599 263.407  0.00  0.00     0.093 N 
HETATM   17  C           1     176.582 184.053 263.552  0.00  0.00     0.273 C 
HETATM   18  C           1     176.237 184.452 264.986  0.00  0.00     0.035 C 
BRANCH  16  19
HETATM   19  C           1     177.121 182.318 262.072  0.00  0.00     0.223 C 
HETATM   20  C           1     178.525 182.860 261.851  0.00  0.00     0.036 C 
HETATM   21  C           1     179.158 181.940 260.808  0.00  0.00     0.002 C 
HETATM   22  C           1     178.215 180.747 260.659  0.00  0.00     0.002 C 
HETATM   23  C           1     177.283 180.824 261.858  0.00  0.00     0.036 C 
ENDBRANCH  16  19
ENDBRANCH  12  13
ENDBRANCH  11  12
ENDBRANCH   9  11
ENDBRANCH   8   9
ENDBRANCH   6   8
BRANCH   5  24
HETATM   24  S           1     173.008 185.346 268.745  0.00  0.00    -0.107 SA
BRANCH  24  25
HETATM   25  C           1     174.123 186.457 267.840  0.00  0.00     0.119 C 
BRANCH  25  26
HETATM   26  C           1     173.445 187.773 267.618  0.00  0.00    -0.049 A 
HETATM   27  C           1     172.231 187.824 266.932  0.00  0.00     0.008 A 
HETATM   28  C           1     171.599 189.050 266.725  0.00  0.00     0.001 A 
HETATM   29  C           1     172.180 190.224 267.202  0.00  0.00     0.000 A 
HETATM   30  C           1     173.393 190.172 267.888  0.00  0.00     0.001 A 
HETATM   31  C           1     174.026 188.947 268.095  0.00  0.00     0.008 A 
ENDBRANCH  25  26
ENDBRANCH  24  25
ENDBRANCH   5  24
BRANCH   1  32
HETATM   32  C           1     176.073 185.682 273.751  0.00  0.00     0.014 A 
HETATM   33  C           1     175.503 185.249 274.948  0.00  0.00     0.130 A 
HETATM   34  F           1     174.286 184.738 274.953  0.00  0.00    -0.205 F 
HETATM   35  C           1     176.219 185.357 276.140  0.00  0.00     0.085 A 
HETATM   36  C           1     177.506 185.897 276.134  0.00  0.00     0.119 A 
HETATM   37  F           1     178.184 185.999 277.262  0.00  0.00    -0.206 F 
HETATM   38  C           1     178.075 186.330 274.937  0.00  0.00     0.043 A 
HETATM   39  C           1     177.358 186.223 273.745  0.00  0.00     0.018 A 
ENDBRANCH   1  32
TORSDOF 10
ENDMDL
MODEL 9
REMARK VINA RESULT:      -8.3      7.524     14.568
REMARK  10 active torsions:
REMARK  status: ('A' for Active; 'I' for Inactive)
REMARK    1  A    between atoms: C_1  and  C_19 
REMARK    2  A    between atoms: C_5  and  S_31 
REMARK    3  A    between atoms: C_6  and  C_8 
REMARK    4  A    between atoms: C_8  and  N_9 
REMARK    5  A    between atoms: N_9  and  C_10 
REMARK    6  A    between atoms: C_10  and  C_11 
REMARK    7  A    between atoms: C_11  and  C_12 
REMARK    8  A    between atoms: N_15  and  C_18 
REMARK    9  A    between atoms: S_31  and  C_38 
REMARK   10  A    between atoms: C_32  and  C_38 
ROOT
HETATM    1  C           1     174.765 187.903 270.922  0.00  0.00    -0.007 A 
HETATM    2  C           1     175.463 188.676 271.835  0.00  0.00     0.101 A 
HETATM    3  N           1     176.127 188.170 272.898  0.00  0.00    -0.359 N 
ATOM      4  HN          1     176.630 188.769 273.551  1.00  0.00     0.166 HD
HETATM    5  C           1     176.090 186.828 273.049  0.00  0.00     0.077 A 
HETATM    6  C           1     175.421 185.972 272.190  0.00  0.00     0.004 A 
HETATM    7  C           1     174.747 186.524 271.106  0.00  0.00     0.025 A 
ENDROOT
BRANCH   6   8
HETATM    8  C           1     175.423 184.494 272.422  0.00  0.00     0.311 C 
BRANCH   8   9
HETATM    9  N           1     174.138 183.951 272.073  0.00  0.00     0.087 N 
HETATM   10  H           1     173.729 183.496 272.888  0.00  0.00     0.316 HD
BRANCH   9  11
HETATM   11  C           1     174.342 182.979 271.033  0.00  0.00     0.270 C 
BRANCH  11  12
HETATM   12  C           1     175.832 182.839 270.751  0.00  0.00     0.034 C 
BRANCH  12  13
HETATM   13  C           1     176.086 183.008 269.259  0.00  0.00    -0.010 C 
HETATM   14  C           1     174.750 183.138 268.535  0.00  0.00     0.035 C 
HETATM   15  C           1     174.948 183.503 267.066  0.00  0.00     0.273 C 
HETATM   16  N           1     175.747 184.722 266.920  0.00  0.00     0.093 N 
HETATM   17  C           1     177.062 184.578 267.546  0.00  0.00     0.273 C 
HETATM   18  C           1     176.940 184.251 269.033  0.00  0.00     0.035 C 
BRANCH  16  19
HETATM   19  C           1     175.952 184.895 265.507  0.00  0.00     0.223 C 
HETATM   20  C           1     176.814 183.776 264.942  0.00  0.00     0.036 C 
HETATM   21  C           1     176.375 183.618 263.487  0.00  0.00     0.002 C 
HETATM   22  C           1     175.103 184.449 263.329  0.00  0.00     0.002 C 
HETATM   23  C           1     174.645 184.749 264.748  0.00  0.00     0.036 C 
ENDBRANCH  16  19
ENDBRANCH  12  13
ENDBRANCH  11  12
ENDBRANCH   9  11
ENDBRANCH   8   9
ENDBRANCH   6   8
BRANCH   5  24
HETATM   24  S           1     176.969 186.104 274.463  0.00  0.00    -0.107 SA
BRANCH  24  25
HETATM   25  C           1     176.361 187.344 275.640  0.00  0.00     0.119 C 
BRANCH  25  26
HETATM   26  C           1     175.202 186.783 276.402  0.00  0.00    -0.049 A 
HETATM   27  C           1     174.212 186.059 275.734  0.00  0.00     0.008 A 
HETATM   28  C           1     173.132 185.536 276.444  0.00  0.00     0.001 A 
HETATM   29  C           1     173.039 185.736 277.821  0.00  0.00     0.000 A 
HETATM   30  C           1     174.028 186.459 278.488  0.00  0.00     0.001 A 
HETATM   31  C           1     175.108 186.983 277.779  0.00  0.00     0.008 A 
ENDBRANCH  25  26
ENDBRANCH  24  25
ENDBRANCH   5  24
BRANCH   1  32
HETATM   32  C           1     174.128 188.467 269.890  0.00  0.00     0.014 A 
HETATM   33  C           1     172.783 188.817 270.010  0.00  0.00     0.130 A 
HETATM   34  F           1     172.139 188.592 271.140  0.00  0.00    -0.205 F 
HETATM   35  C           1     172.117 189.405 268.934  0.00  0.00     0.085 A 
HETATM   36  C           1     172.798 189.643 267.739  0.00  0.00     0.119 A 
HETATM   37  F           1     172.168 190.199 266.721  0.00  0.00    -0.206 F 
HETATM   38  C           1     174.142 189.293 267.621  0.00  0.00     0.043 A 
HETATM   39  C           1     174.808 188.704 268.696  0.00  0.00     0.018 A 
ENDBRANCH   1  32
TORSDOF 10
ENDMDL
