MODEL 1
REMARK VINA RESULT:      -7.8      0.000      0.000
REMARK  10 active torsions:
REMARK  status: ('A' for Active; 'I' for Inactive)
REMARK    1  A    between atoms: C_2  and  C_17 
REMARK    2  A    between atoms: C_4  and  S_8 
REMARK    3  A    between atoms: C_5  and  C_7 
REMARK    4  A    between atoms: C_7  and  N_16 
REMARK    5  A    between atoms: S_8  and  C_9 
REMARK    6  A    between atoms: C_9  and  C_10 
REMARK    7  A    between atoms: N_16  and  C_18 
REMARK    8  A    between atoms: C_18  and  C_19 
REMARK    9  A    between atoms: C_19  and  N_20 
REMARK   10  A    between atoms: C_29  and  O_32 
ROOT
HETATM    1  C           1     174.385 186.222 271.899  0.00  0.00     0.130 A 
HETATM    2  C           1     175.506 185.495 272.266  0.00  0.00    -0.008 A 
HETATM    3  N           1     173.824 186.166 270.672  0.00  0.00    -0.253 NA
HETATM    4  C           1     174.411 185.346 269.773  0.00  0.00     0.101 A 
HETATM    5  C           1     175.534 184.582 270.047  0.00  0.00     0.006 A 
HETATM    6  C           1     176.090 184.660 271.319  0.00  0.00     0.025 A 
ENDROOT
BRANCH   5   7
HETATM    7  C           1     176.133 183.694 269.000  0.00  0.00     0.311 C 
BRANCH   7   8
HETATM    8  N           1     177.291 184.332 268.435  0.00  0.00     0.089 N 
HETATM    9  H           1     177.236 185.338 268.592  0.00  0.00     0.316 HD
BRANCH   8  10
HETATM   10  C           1     177.290 184.066 267.022  0.00  0.00     0.300 C 
BRANCH  10  11
HETATM   11  C           1     176.368 182.890 266.728  0.00  0.00     0.302 C 
BRANCH  11  12
HETATM   12  N           1     176.484 182.524 265.342  0.00  0.00     0.093 N 
HETATM   13  C           1     176.630 183.776 264.578  0.00  0.00     0.302 C 
HETATM   14  C           1     177.018 183.540 263.103  0.00  0.00     0.302 C 
HETATM   15  N           1     178.239 182.729 262.953  0.00  0.00     0.087 N 
HETATM   16  C           1     178.344 182.382 261.561  0.00  0.00     0.310 C 
HETATM   17  C           1     178.093 181.477 263.717  0.00  0.00     0.302 C 
HETATM   18  C           1     177.704 181.714 265.192  0.00  0.00     0.302 C 
ENDBRANCH  11  12
ENDBRANCH  10  11
ENDBRANCH   8  10
ENDBRANCH   7   8
ENDBRANCH   5   7
BRANCH   4  19
HETATM   19  S           1     173.689 185.241 268.111  0.00  0.00    -0.105 SA
BRANCH  19  20
HETATM   20  C           1     174.669 186.622 267.459  0.00  0.00     0.119 C 
BRANCH  20  21
HETATM   21  C           1     173.822 187.856 267.414  0.00  0.00    -0.049 A 
HETATM   22  C           1     172.557 187.813 266.828  0.00  0.00     0.008 A 
HETATM   23  C           1     171.769 188.963 266.785  0.00  0.00     0.001 A 
HETATM   24  C           1     172.244 190.155 267.329  0.00  0.00     0.000 A 
HETATM   25  C           1     173.509 190.198 267.916  0.00  0.00     0.001 A 
HETATM   26  C           1     174.298 189.049 267.958  0.00  0.00     0.008 A 
ENDBRANCH  20  21
ENDBRANCH  19  20
ENDBRANCH   4  19
BRANCH   2  27
HETATM   27  C           1     176.015 185.595 273.499  0.00  0.00    -0.024 A 
HETATM   28  C           1     175.348 185.016 274.578  0.00  0.00     0.015 A 
HETATM   29  C           1     175.879 185.119 275.864  0.00  0.00     0.037 A 
HETATM   30  C           1     177.077 185.804 276.071  0.00  0.00     0.068 A 
HETATM   31  C           1     177.744 186.384 274.992  0.00  0.00     0.037 A 
HETATM   32  C           1     177.213 186.280 273.706  0.00  0.00     0.015 A 
BRANCH  30  33
HETATM   33  O           1     177.593 185.905 277.319  0.00  0.00    -0.356 OA
HETATM   34  C           1     178.821 185.235 277.407  0.00  0.00     0.210 C 
ENDBRANCH  30  33
ENDBRANCH   2  27
TORSDOF 10
ENDMDL
MODEL 2
REMARK VINA RESULT:      -7.8      8.028     12.991
REMARK  10 active torsions:
REMARK  status: ('A' for Active; 'I' for Inactive)
REMARK    1  A    between atoms: C_2  and  C_17 
REMARK    2  A    between atoms: C_4  and  S_8 
REMARK    3  A    between atoms: C_5  and  C_7 
REMARK    4  A    between atoms: C_7  and  N_16 
REMARK    5  A    between atoms: S_8  and  C_9 
REMARK    6  A    between atoms: C_9  and  C_10 
REMARK    7  A    between atoms: N_16  and  C_18 
REMARK    8  A    between atoms: C_18  and  C_19 
REMARK    9  A    between atoms: C_19  and  N_20 
REMARK   10  A    between atoms: C_29  and  O_32 
ROOT
HETATM    1  C           1     174.632 186.986 280.211  0.00  0.00     0.130 A 
HETATM    2  C           1     173.554 186.518 280.946  0.00  0.00    -0.008 A 
HETATM    3  N           1     174.618 187.129 278.868  0.00  0.00    -0.253 NA
HETATM    4  C           1     173.475 186.789 278.233  0.00  0.00     0.101 A 
HETATM    5  C           1     172.348 186.312 278.881  0.00  0.00     0.006 A 
HETATM    6  C           1     172.392 186.175 280.265  0.00  0.00     0.025 A 
ENDROOT
BRANCH   5   7
HETATM    7  C           1     171.114 185.953 278.113  0.00  0.00     0.311 C 
BRANCH   7   8
HETATM    8  N           1     170.007 186.739 278.588  0.00  0.00     0.089 N 
HETATM    9  H           1     169.187 186.142 278.694  0.00  0.00     0.316 HD
BRANCH   8  10
HETATM   10  C           1     169.738 187.753 277.605  0.00  0.00     0.300 C 
BRANCH  10  11
HETATM   11  C           1     170.219 189.103 278.122  0.00  0.00     0.302 C 
BRANCH  11  12
HETATM   12  N           1     169.918 189.215 279.524  0.00  0.00     0.093 N 
HETATM   13  C           1     171.148 189.673 280.193  0.00  0.00     0.302 C 
HETATM   14  C           1     170.917 190.084 281.663  0.00  0.00     0.302 C 
HETATM   15  N           1     169.867 191.107 281.815  0.00  0.00     0.087 N 
HETATM   16  C           1     169.586 191.214 283.221  0.00  0.00     0.310 C 
HETATM   17  C           1     168.636 190.649 281.145  0.00  0.00     0.302 C 
HETATM   18  C           1     168.868 190.237 279.676  0.00  0.00     0.302 C 
ENDBRANCH  11  12
ENDBRANCH  10  11
ENDBRANCH   8  10
ENDBRANCH   7   8
ENDBRANCH   5   7
BRANCH   4  19
HETATM   19  S           1     173.414 186.966 276.428  0.00  0.00    -0.105 SA
BRANCH  19  20
HETATM   20  C           1     174.287 185.405 276.118  0.00  0.00     0.119 C 
BRANCH  20  21
HETATM   21  C           1     175.672 185.697 275.630  0.00  0.00    -0.049 A 
HETATM   22  C           1     176.753 185.609 276.507  0.00  0.00     0.008 A 
HETATM   23  C           1     178.043 185.881 276.053  0.00  0.00     0.001 A 
HETATM   24  C           1     178.253 186.240 274.722  0.00  0.00     0.000 A 
HETATM   25  C           1     177.172 186.328 273.845  0.00  0.00     0.001 A 
HETATM   26  C           1     175.882 186.057 274.299  0.00  0.00     0.008 A 
ENDBRANCH  20  21
ENDBRANCH  19  20
ENDBRANCH   4  19
BRANCH   2  27
HETATM   27  C           1     173.631 186.398 282.275  0.00  0.00    -0.024 A 
HETATM   28  C           1     174.594 185.565 282.846  0.00  0.00     0.015 A 
HETATM   29  C           1     174.675 185.441 284.234  0.00  0.00     0.037 A 
HETATM   30  C           1     173.793 186.150 285.050  0.00  0.00     0.068 A 
HETATM   31  C           1     172.831 186.982 284.479  0.00  0.00     0.037 A 
HETATM   32  C           1     172.750 187.107 283.092  0.00  0.00     0.015 A 
BRANCH  30  33
HETATM   33  O           1     173.872 186.029 286.397  0.00  0.00    -0.356 OA
HETATM   34  C           1     173.821 184.682 286.780  0.00  0.00     0.210 C 
ENDBRANCH  30  33
ENDBRANCH   2  27
TORSDOF 10
ENDMDL
MODEL 3
REMARK VINA RESULT:      -7.7      8.631     13.553
REMARK  10 active torsions:
REMARK  status: ('A' for Active; 'I' for Inactive)
REMARK    1  A    between atoms: C_2  and  C_17 
REMARK    2  A    between atoms: C_4  and  S_8 
REMARK    3  A    between atoms: C_5  and  C_7 
REMARK    4  A    between atoms: C_7  and  N_16 
REMARK    5  A    between atoms: S_8  and  C_9 
REMARK    6  A    between atoms: C_9  and  C_10 
REMARK    7  A    between atoms: N_16  and  C_18 
REMARK    8  A    between atoms: C_18  and  C_19 
REMARK    9  A    between atoms: C_19  and  N_20 
REMARK   10  A    between atoms: C_29  and  O_32 
ROOT
HETATM    1  C           1     173.477 189.162 283.637  0.00  0.00     0.130 A 
HETATM    2  C           1     172.743 189.484 282.506  0.00  0.00    -0.008 A 
HETATM    3  N           1     174.413 188.188 283.672  0.00  0.00    -0.253 NA
HETATM    4  C           1     174.623 187.507 282.524  0.00  0.00     0.101 A 
HETATM    5  C           1     173.939 187.756 281.346  0.00  0.00     0.006 A 
HETATM    6  C           1     172.981 188.765 281.340  0.00  0.00     0.025 A 
ENDROOT
BRANCH   5   7
HETATM    7  C           1     174.225 186.961 280.109  0.00  0.00     0.311 C 
BRANCH   7   8
HETATM    8  N           1     172.985 186.559 279.501  0.00  0.00     0.089 N 
HETATM    9  H           1     172.567 185.806 280.046  0.00  0.00     0.316 HD
BRANCH   8  10
HETATM   10  C           1     173.283 186.084 278.177  0.00  0.00     0.300 C 
BRANCH  10  11
HETATM   11  C           1     174.523 186.795 277.649  0.00  0.00     0.302 C 
BRANCH  11  12
HETATM   12  N           1     174.568 186.682 276.217  0.00  0.00     0.093 N 
HETATM   13  C           1     175.683 187.528 275.753  0.00  0.00     0.302 C 
HETATM   14  C           1     176.021 187.315 274.263  0.00  0.00     0.302 C 
HETATM   15  N           1     176.304 185.907 273.932  0.00  0.00     0.087 N 
HETATM   16  C           1     176.356 185.816 272.498  0.00  0.00     0.310 C 
HETATM   17  C           1     175.189 185.062 274.395  0.00  0.00     0.302 C 
HETATM   18  C           1     174.851 185.275 275.886  0.00  0.00     0.302 C 
ENDBRANCH  11  12
ENDBRANCH  10  11
ENDBRANCH   8  10
ENDBRANCH   7   8
ENDBRANCH   5   7
BRANCH   4  19
HETATM   19  S           1     175.872 186.191 282.528  0.00  0.00    -0.105 SA
BRANCH  19  20
HETATM   20  C           1     174.653 184.859 282.709  0.00  0.00     0.119 C 
BRANCH  20  21
HETATM   21  C           1     174.089 184.886 284.096  0.00  0.00    -0.049 A 
HETATM   22  C           1     174.924 184.671 285.193  0.00  0.00     0.008 A 
HETATM   23  C           1     174.399 184.694 286.484  0.00  0.00     0.001 A 
HETATM   24  C           1     173.040 184.933 286.681  0.00  0.00     0.000 A 
HETATM   25  C           1     172.204 185.147 285.584  0.00  0.00     0.001 A 
HETATM   26  C           1     172.729 185.123 284.293  0.00  0.00     0.008 A 
ENDBRANCH  20  21
ENDBRANCH  19  20
ENDBRANCH   4  19
BRANCH   2  27
HETATM   27  C           1     171.830 190.459 282.537  0.00  0.00    -0.024 A 
HETATM   28  C           1     170.641 190.280 283.244  0.00  0.00     0.015 A 
HETATM   29  C           1     169.688 191.298 283.277  0.00  0.00     0.037 A 
HETATM   30  C           1     169.924 192.496 282.601  0.00  0.00     0.068 A 
HETATM   31  C           1     171.111 192.675 281.893  0.00  0.00     0.037 A 
HETATM   32  C           1     172.065 191.657 281.861  0.00  0.00     0.015 A 
BRANCH  30  33
HETATM   33  O           1     168.998 193.485 282.633  0.00  0.00    -0.356 OA
HETATM   34  C           1     168.941 194.153 281.402  0.00  0.00     0.210 C 
ENDBRANCH  30  33
ENDBRANCH   2  27
TORSDOF 10
ENDMDL
MODEL 4
REMARK VINA RESULT:      -7.7      7.291     11.086
REMARK  10 active torsions:
REMARK  status: ('A' for Active; 'I' for Inactive)
REMARK    1  A    between atoms: C_2  and  C_17 
REMARK    2  A    between atoms: C_4  and  S_8 
REMARK    3  A    between atoms: C_5  and  C_7 
REMARK    4  A    between atoms: C_7  and  N_16 
REMARK    5  A    between atoms: S_8  and  C_9 
REMARK    6  A    between atoms: C_9  and  C_10 
REMARK    7  A    between atoms: N_16  and  C_18 
REMARK    8  A    between atoms: C_18  and  C_19 
REMARK    9  A    between atoms: C_19  and  N_20 
REMARK   10  A    between atoms: C_29  and  O_32 
ROOT
HETATM    1  C           1     174.755 186.730 280.840  0.00  0.00     0.130 A 
HETATM    2  C           1     173.670 186.107 281.435  0.00  0.00    -0.008 A 
HETATM    3  N           1     174.805 187.062 279.531  0.00  0.00    -0.253 NA
HETATM    4  C           1     173.721 186.755 278.786  0.00  0.00     0.101 A 
HETATM    5  C           1     172.591 186.132 279.291  0.00  0.00     0.006 A 
HETATM    6  C           1     172.569 185.803 280.643  0.00  0.00     0.025 A 
ENDROOT
BRANCH   5   7
HETATM    7  C           1     171.425 185.821 278.406  0.00  0.00     0.311 C 
BRANCH   7   8
HETATM    8  N           1     170.280 186.578 278.837  0.00  0.00     0.089 N 
HETATM    9  H           1     169.460 185.972 278.857  0.00  0.00     0.316 HD
BRANCH   8  10
HETATM   10  C           1     170.073 187.636 277.885  0.00  0.00     0.300 C 
BRANCH  10  11
HETATM   11  C           1     169.644 187.041 276.550  0.00  0.00     0.302 C 
BRANCH  11  12
HETATM   12  N           1     169.963 187.959 275.491  0.00  0.00     0.093 N 
HETATM   13  C           1     170.639 189.113 276.110  0.00  0.00     0.302 C 
HETATM   14  C           1     171.270 190.068 275.075  0.00  0.00     0.302 C 
HETATM   15  N           1     172.201 189.389 274.158  0.00  0.00     0.087 N 
HETATM   16  C           1     172.517 190.324 273.112  0.00  0.00     0.310 C 
HETATM   17  C           1     171.525 188.235 273.538  0.00  0.00     0.302 C 
HETATM   18  C           1     170.894 187.280 274.573  0.00  0.00     0.302 C 
ENDBRANCH  11  12
ENDBRANCH  10  11
ENDBRANCH   8  10
ENDBRANCH   7   8
ENDBRANCH   5   7
BRANCH   4  19
HETATM   19  S           1     173.746 187.183 277.023  0.00  0.00    -0.105 SA
BRANCH  19  20
HETATM   20  C           1     174.458 185.593 276.517  0.00  0.00     0.119 C 
BRANCH  20  21
HETATM   21  C           1     175.791 185.825 275.875  0.00  0.00    -0.049 A 
HETATM   22  C           1     175.870 186.084 274.506  0.00  0.00     0.008 A 
HETATM   23  C           1     177.111 186.299 273.907  0.00  0.00     0.001 A 
HETATM   24  C           1     178.273 186.257 274.676  0.00  0.00     0.000 A 
HETATM   25  C           1     178.194 185.998 276.045  0.00  0.00     0.001 A 
HETATM   26  C           1     176.953 185.782 276.644  0.00  0.00     0.008 A 
ENDBRANCH  20  21
ENDBRANCH  19  20
ENDBRANCH   4  19
BRANCH   2  27
HETATM   27  C           1     173.683 185.804 282.737  0.00  0.00    -0.024 A 
HETATM   28  C           1     174.781 185.142 283.289  0.00  0.00     0.015 A 
HETATM   29  C           1     174.795 184.827 284.648  0.00  0.00     0.037 A 
HETATM   30  C           1     173.711 185.174 285.455  0.00  0.00     0.068 A 
HETATM   31  C           1     172.613 185.835 284.904  0.00  0.00     0.037 A 
HETATM   32  C           1     172.600 186.150 283.545  0.00  0.00     0.015 A 
BRANCH  30  33
HETATM   33  O           1     173.724 184.868 286.775  0.00  0.00    -0.356 OA
HETATM   34  C           1     174.132 185.971 287.538  0.00  0.00     0.210 C 
ENDBRANCH  30  33
ENDBRANCH   2  27
TORSDOF 10
ENDMDL
MODEL 5
REMARK VINA RESULT:      -7.5      9.205     14.940
REMARK  10 active torsions:
REMARK  status: ('A' for Active; 'I' for Inactive)
REMARK    1  A    between atoms: C_2  and  C_17 
REMARK    2  A    between atoms: C_4  and  S_8 
REMARK    3  A    between atoms: C_5  and  C_7 
REMARK    4  A    between atoms: C_7  and  N_16 
REMARK    5  A    between atoms: S_8  and  C_9 
REMARK    6  A    between atoms: C_9  and  C_10 
REMARK    7  A    between atoms: N_16  and  C_18 
REMARK    8  A    between atoms: C_18  and  C_19 
REMARK    9  A    between atoms: C_19  and  N_20 
REMARK   10  A    between atoms: C_29  and  O_32 
ROOT
HETATM    1  C           1     170.894 188.985 279.727  0.00  0.00     0.130 A 
HETATM    2  C           1     171.569 189.190 280.920  0.00  0.00    -0.008 A 
HETATM    3  N           1     171.079 187.905 278.937  0.00  0.00    -0.253 NA
HETATM    4  C           1     171.979 186.990 279.360  0.00  0.00     0.101 A 
HETATM    5  C           1     172.701 187.108 280.536  0.00  0.00     0.006 A 
HETATM    6  C           1     172.489 188.232 281.329  0.00  0.00     0.025 A 
ENDROOT
BRANCH   5   7
HETATM    7  C           1     173.683 186.054 280.944  0.00  0.00     0.311 C 
BRANCH   7   8
HETATM    8  N           1     173.120 185.257 282.001  0.00  0.00     0.089 N 
HETATM    9  H           1     172.527 185.842 282.589  0.00  0.00     0.316 HD
BRANCH   8  10
HETATM   10  C           1     174.209 184.738 282.783  0.00  0.00     0.300 C 
BRANCH  10  11
HETATM   11  C           1     174.670 185.797 283.776  0.00  0.00     0.302 C 
BRANCH  11  12
HETATM   12  N           1     173.797 185.797 284.918  0.00  0.00     0.093 N 
HETATM   13  C           1     174.620 185.447 286.090  0.00  0.00     0.302 C 
HETATM   14  C           1     173.880 185.653 287.429  0.00  0.00     0.302 C 
HETATM   15  N           1     173.353 187.019 287.590  0.00  0.00     0.087 N 
HETATM   16  C           1     172.491 187.003 288.741  0.00  0.00     0.310 C 
HETATM   17  C           1     172.530 187.369 286.419  0.00  0.00     0.302 C 
HETATM   18  C           1     173.270 187.163 285.080  0.00  0.00     0.302 C 
ENDBRANCH  11  12
ENDBRANCH  10  11
ENDBRANCH   8  10
ENDBRANCH   7   8
ENDBRANCH   5   7
BRANCH   4  19
HETATM   19  S           1     172.257 185.523 278.329  0.00  0.00    -0.105 SA
BRANCH  19  20
HETATM   20  C           1     172.796 186.483 276.886  0.00  0.00     0.119 C 
BRANCH  20  21
HETATM   21  C           1     174.223 186.154 276.573  0.00  0.00    -0.049 A 
HETATM   22  C           1     174.523 185.247 275.557  0.00  0.00     0.008 A 
HETATM   23  C           1     175.851 184.939 275.266  0.00  0.00     0.001 A 
HETATM   24  C           1     176.881 185.540 275.990  0.00  0.00     0.000 A 
HETATM   25  C           1     176.581 186.448 277.006  0.00  0.00     0.001 A 
HETATM   26  C           1     175.252 186.754 277.298  0.00  0.00     0.008 A 
ENDBRANCH  20  21
ENDBRANCH  19  20
ENDBRANCH   4  19
BRANCH   2  27
HETATM   27  C           1     171.341 190.282 281.656  0.00  0.00    -0.024 A 
HETATM   28  C           1     170.335 190.275 282.623  0.00  0.00     0.015 A 
HETATM   29  C           1     170.098 191.414 283.393  0.00  0.00     0.037 A 
HETATM   30  C           1     170.868 192.561 283.195  0.00  0.00     0.068 A 
HETATM   31  C           1     171.873 192.569 282.228  0.00  0.00     0.037 A 
HETATM   32  C           1     172.110 191.429 281.459  0.00  0.00     0.015 A 
BRANCH  30  33
HETATM   33  O           1     170.637 193.668 283.942  0.00  0.00    -0.356 OA
HETATM   34  C           1     169.310 194.095 283.803  0.00  0.00     0.210 C 
ENDBRANCH  30  33
ENDBRANCH   2  27
TORSDOF 10
ENDMDL
MODEL 6
REMARK VINA RESULT:      -7.5      3.816      9.745
REMARK  10 active torsions:
REMARK  status: ('A' for Active; 'I' for Inactive)
REMARK    1  A    between atoms: C_2  and  C_17 
REMARK    2  A    between atoms: C_4  and  S_8 
REMARK    3  A    between atoms: C_5  and  C_7 
REMARK    4  A    between atoms: C_7  and  N_16 
REMARK    5  A    between atoms: S_8  and  C_9 
REMARK    6  A    between atoms: C_9  and  C_10 
REMARK    7  A    between atoms: N_16  and  C_18 
REMARK    8  A    between atoms: C_18  and  C_19 
REMARK    9  A    between atoms: C_19  and  N_20 
REMARK   10  A    between atoms: C_29  and  O_32 
ROOT
HETATM    1  C           1     176.152 184.209 268.641  0.00  0.00     0.130 A 
HETATM    2  C           1     175.947 184.893 267.454  0.00  0.00    -0.008 A 
HETATM    3  N           1     175.814 184.695 269.856  0.00  0.00    -0.253 NA
HETATM    4  C           1     175.246 185.920 269.882  0.00  0.00     0.101 A 
HETATM    5  C           1     175.002 186.679 268.749  0.00  0.00     0.006 A 
HETATM    6  C           1     175.361 186.153 267.513  0.00  0.00     0.025 A 
ENDROOT
BRANCH   5   7
HETATM    7  C           1     174.367 188.032 268.853  0.00  0.00     0.311 C 
BRANCH   7   8
HETATM    8  N           1     175.265 189.024 268.326  0.00  0.00     0.089 N 
HETATM    9  H           1     176.214 188.825 268.641  0.00  0.00     0.316 HD
BRANCH   8  10
HETATM   10  C           1     174.849 190.303 268.836  0.00  0.00     0.300 C 
BRANCH  10  11
HETATM   11  C           1     175.450 190.518 270.219  0.00  0.00     0.302 C 
BRANCH  11  12
HETATM   12  N           1     174.495 191.189 271.059  0.00  0.00     0.093 N 
HETATM   13  C           1     175.073 192.500 271.405  0.00  0.00     0.302 C 
HETATM   14  C           1     174.061 193.441 272.093  0.00  0.00     0.302 C 
HETATM   15  N           1     172.832 193.640 271.305  0.00  0.00     0.087 N 
HETATM   16  C           1     171.894 194.321 272.156  0.00  0.00     0.310 C 
HETATM   17  C           1     172.255 192.329 270.959  0.00  0.00     0.302 C 
HETATM   18  C           1     173.266 191.388 270.271  0.00  0.00     0.302 C 
ENDBRANCH  11  12
ENDBRANCH  10  11
ENDBRANCH   8  10
ENDBRANCH   7   8
ENDBRANCH   5   7
BRANCH   4  19
HETATM   19  S           1     174.776 186.610 271.493  0.00  0.00    -0.105 SA
BRANCH  19  20
HETATM   20  C           1     175.121 185.074 272.395  0.00  0.00     0.119 C 
BRANCH  20  21
HETATM   21  C           1     175.881 185.389 273.646  0.00  0.00    -0.049 A 
HETATM   22  C           1     175.396 184.962 274.882  0.00  0.00     0.008 A 
HETATM   23  C           1     176.102 185.257 276.048  0.00  0.00     0.001 A 
HETATM   24  C           1     177.293 185.978 275.978  0.00  0.00     0.000 A 
HETATM   25  C           1     177.778 186.405 274.742  0.00  0.00     0.001 A 
HETATM   26  C           1     177.072 186.111 273.576  0.00  0.00     0.008 A 
ENDBRANCH  20  21
ENDBRANCH  19  20
ENDBRANCH   4  19
BRANCH   2  27
HETATM   27  C           1     176.305 184.357 266.283  0.00  0.00    -0.024 A 
HETATM   28  C           1     177.214 183.299 266.249  0.00  0.00     0.015 A 
HETATM   29  C           1     177.586 182.738 265.027  0.00  0.00     0.037 A 
HETATM   30  C           1     177.051 183.237 263.839  0.00  0.00     0.068 A 
HETATM   31  C           1     176.144 184.295 263.873  0.00  0.00     0.037 A 
HETATM   32  C           1     175.770 184.855 265.095  0.00  0.00     0.015 A 
BRANCH  30  33
HETATM   33  O           1     177.413 182.693 262.652  0.00  0.00    -0.356 OA
HETATM   34  C           1     177.681 181.324 262.792  0.00  0.00     0.210 C 
ENDBRANCH  30  33
ENDBRANCH   2  27
TORSDOF 10
ENDMDL
MODEL 7
REMARK VINA RESULT:      -7.4      3.157      7.029
REMARK  10 active torsions:
REMARK  status: ('A' for Active; 'I' for Inactive)
REMARK    1  A    between atoms: C_2  and  C_17 
REMARK    2  A    between atoms: C_4  and  S_8 
REMARK    3  A    between atoms: C_5  and  C_7 
REMARK    4  A    between atoms: C_7  and  N_16 
REMARK    5  A    between atoms: S_8  and  C_9 
REMARK    6  A    between atoms: C_9  and  C_10 
REMARK    7  A    between atoms: N_16  and  C_18 
REMARK    8  A    between atoms: C_18  and  C_19 
REMARK    9  A    between atoms: C_19  and  N_20 
REMARK   10  A    between atoms: C_29  and  O_32 
ROOT
HETATM    1  C           1     176.105 184.927 271.182  0.00  0.00     0.130 A 
HETATM    2  C           1     175.358 185.453 272.224  0.00  0.00    -0.008 A 
HETATM    3  N           1     175.645 184.800 269.918  0.00  0.00    -0.253 NA
HETATM    4  C           1     174.381 185.219 269.688  0.00  0.00     0.101 A 
HETATM    5  C           1     173.559 185.757 270.664  0.00  0.00     0.006 A 
HETATM    6  C           1     174.060 185.875 271.956  0.00  0.00     0.025 A 
ENDROOT
BRANCH   5   7
HETATM    7  C           1     172.167 186.202 270.337  0.00  0.00     0.311 C 
BRANCH   7   8
HETATM    8  N           1     172.092 187.636 270.407  0.00  0.00     0.089 N 
HETATM    9  H           1     173.008 188.013 270.652  0.00  0.00     0.316 HD
BRANCH   8  10
HETATM   10  C           1     171.144 187.974 271.434  0.00  0.00     0.300 C 
BRANCH  10  11
HETATM   11  C           1     171.644 189.186 272.209  0.00  0.00     0.302 C 
BRANCH  11  12
HETATM   12  N           1     171.613 188.901 273.618  0.00  0.00     0.093 N 
HETATM   13  C           1     170.747 187.723 273.800  0.00  0.00     0.302 C 
HETATM   14  C           1     170.814 187.140 275.228  0.00  0.00     0.302 C 
HETATM   15  N           1     172.187 186.809 275.649  0.00  0.00     0.087 N 
HETATM   16  C           1     172.135 186.517 277.056  0.00  0.00     0.310 C 
HETATM   17  C           1     173.053 187.987 275.467  0.00  0.00     0.302 C 
HETATM   18  C           1     172.985 188.570 274.040  0.00  0.00     0.302 C 
ENDBRANCH  11  12
ENDBRANCH  10  11
ENDBRANCH   8  10
ENDBRANCH   7   8
ENDBRANCH   5   7
BRANCH   4  19
HETATM   19  S           1     173.724 185.068 268.003  0.00  0.00    -0.105 SA
BRANCH  19  20
HETATM   20  C           1     174.754 186.410 267.345  0.00  0.00     0.119 C 
BRANCH  20  21
HETATM   21  C           1     173.982 187.692 267.374  0.00  0.00    -0.049 A 
HETATM   22  C           1     174.548 188.834 267.940  0.00  0.00     0.008 A 
HETATM   23  C           1     173.829 190.028 267.969  0.00  0.00     0.001 A 
HETATM   24  C           1     172.543 190.082 267.431  0.00  0.00     0.000 A 
HETATM   25  C           1     171.977 188.939 266.865  0.00  0.00     0.001 A 
HETATM   26  C           1     172.696 187.745 266.837  0.00  0.00     0.008 A 
ENDBRANCH  20  21
ENDBRANCH  19  20
ENDBRANCH   4  19
BRANCH   2  27
HETATM   27  C           1     175.871 185.550 273.455  0.00  0.00    -0.024 A 
HETATM   28  C           1     177.100 186.181 273.650  0.00  0.00     0.015 A 
HETATM   29  C           1     177.635 186.284 274.934  0.00  0.00     0.037 A 
HETATM   30  C           1     176.941 185.755 276.023  0.00  0.00     0.068 A 
HETATM   31  C           1     175.714 185.123 275.828  0.00  0.00     0.037 A 
HETATM   32  C           1     175.178 185.021 274.543  0.00  0.00     0.015 A 
BRANCH  30  33
HETATM   33  O           1     177.461 185.854 277.270  0.00  0.00    -0.356 OA
HETATM   34  C           1     178.749 185.302 277.318  0.00  0.00     0.210 C 
ENDBRANCH  30  33
ENDBRANCH   2  27
TORSDOF 10
ENDMDL
MODEL 8
REMARK VINA RESULT:      -7.4      8.048     12.280
REMARK  10 active torsions:
REMARK  status: ('A' for Active; 'I' for Inactive)
REMARK    1  A    between atoms: C_2  and  C_17 
REMARK    2  A    between atoms: C_4  and  S_8 
REMARK    3  A    between atoms: C_5  and  C_7 
REMARK    4  A    between atoms: C_7  and  N_16 
REMARK    5  A    between atoms: S_8  and  C_9 
REMARK    6  A    between atoms: C_9  and  C_10 
REMARK    7  A    between atoms: N_16  and  C_18 
REMARK    8  A    between atoms: C_18  and  C_19 
REMARK    9  A    between atoms: C_19  and  N_20 
REMARK   10  A    between atoms: C_29  and  O_32 
ROOT
HETATM    1  C           1     174.712 186.856 280.259  0.00  0.00     0.130 A 
HETATM    2  C           1     173.673 186.272 280.965  0.00  0.00    -0.008 A 
HETATM    3  N           1     174.679 187.088 278.928  0.00  0.00    -0.253 NA
HETATM    4  C           1     173.555 186.718 278.277  0.00  0.00     0.101 A 
HETATM    5  C           1     172.465 186.128 278.895  0.00  0.00     0.006 A 
HETATM    6  C           1     172.529 185.901 280.266  0.00  0.00     0.025 A 
ENDROOT
BRANCH   5   7
HETATM    7  C           1     171.250 185.743 278.109  0.00  0.00     0.311 C 
BRANCH   7   8
HETATM    8  N           1     170.116 186.489 278.584  0.00  0.00     0.089 N 
HETATM    9  H           1     169.324 185.859 278.711  0.00  0.00     0.316 HD
BRANCH   8  10
HETATM   10  C           1     169.791 187.472 277.585  0.00  0.00     0.300 C 
BRANCH  10  11
HETATM   11  C           1     168.279 187.642 277.514  0.00  0.00     0.302 C 
BRANCH  11  12
HETATM   12  N           1     167.954 189.043 277.493  0.00  0.00     0.093 N 
HETATM   13  C           1     168.371 189.600 278.793  0.00  0.00     0.302 C 
HETATM   14  C           1     168.321 191.142 278.831  0.00  0.00     0.302 C 
HETATM   15  N           1     169.107 191.769 277.754  0.00  0.00     0.087 N 
HETATM   16  C           1     168.778 193.169 277.755  0.00  0.00     0.310 C 
HETATM   17  C           1     168.691 191.212 276.454  0.00  0.00     0.302 C 
HETATM   18  C           1     168.740 189.670 276.417  0.00  0.00     0.302 C 
ENDBRANCH  11  12
ENDBRANCH  10  11
ENDBRANCH   8  10
ENDBRANCH   7   8
ENDBRANCH   5   7
BRANCH   4  19
HETATM   19  S           1     173.468 187.012 276.488  0.00  0.00    -0.105 SA
BRANCH  19  20
HETATM   20  C           1     174.290 185.452 276.063  0.00  0.00     0.119 C 
BRANCH  20  21
HETATM   21  C           1     175.688 185.733 275.604  0.00  0.00    -0.049 A 
HETATM   22  C           1     175.921 186.145 274.292  0.00  0.00     0.008 A 
HETATM   23  C           1     177.222 186.407 273.864  0.00  0.00     0.001 A 
HETATM   24  C           1     178.290 186.258 274.747  0.00  0.00     0.000 A 
HETATM   25  C           1     178.057 185.846 276.059  0.00  0.00     0.001 A 
HETATM   26  C           1     176.756 185.583 276.487  0.00  0.00     0.008 A 
ENDBRANCH  20  21
ENDBRANCH  19  20
ENDBRANCH   4  19
BRANCH   2  27
HETATM   27  C           1     173.768 186.069 282.283  0.00  0.00    -0.024 A 
HETATM   28  C           1     172.778 186.555 283.137  0.00  0.00     0.015 A 
HETATM   29  C           1     172.878 186.342 284.512  0.00  0.00     0.037 A 
HETATM   30  C           1     173.967 185.643 285.033  0.00  0.00     0.068 A 
HETATM   31  C           1     174.957 185.157 284.179  0.00  0.00     0.037 A 
HETATM   32  C           1     174.857 185.370 282.804  0.00  0.00     0.015 A 
BRANCH  30  33
HETATM   33  O           1     174.064 185.436 286.368  0.00  0.00    -0.356 OA
HETATM   34  C           1     172.859 184.938 286.884  0.00  0.00     0.210 C 
ENDBRANCH  30  33
ENDBRANCH   2  27
TORSDOF 10
ENDMDL
MODEL 9
REMARK VINA RESULT:      -7.2      3.275      6.953
REMARK  10 active torsions:
REMARK  status: ('A' for Active; 'I' for Inactive)
REMARK    1  A    between atoms: C_2  and  C_17 
REMARK    2  A    between atoms: C_4  and  S_8 
REMARK    3  A    between atoms: C_5  and  C_7 
REMARK    4  A    between atoms: C_7  and  N_16 
REMARK    5  A    between atoms: S_8  and  C_9 
REMARK    6  A    between atoms: C_9  and  C_10 
REMARK    7  A    between atoms: N_16  and  C_18 
REMARK    8  A    between atoms: C_18  and  C_19 
REMARK    9  A    between atoms: C_19  and  N_20 
REMARK   10  A    between atoms: C_29  and  O_32 
ROOT
HETATM    1  C           1     176.177 184.861 271.547  0.00  0.00     0.130 A 
HETATM    2  C           1     175.567 185.560 272.576  0.00  0.00    -0.008 A 
HETATM    3  N           1     175.647 184.732 270.311  0.00  0.00    -0.253 NA
HETATM    4  C           1     174.454 185.329 270.097  0.00  0.00     0.101 A 
HETATM    5  C           1     173.769 186.048 271.063  0.00  0.00     0.006 A 
HETATM    6  C           1     174.340 186.164 272.326  0.00  0.00     0.025 A 
ENDROOT
BRANCH   5   7
HETATM    7  C           1     172.449 186.685 270.755  0.00  0.00     0.311 C 
BRANCH   7   8
HETATM    8  N           1     171.521 186.402 271.816  0.00  0.00     0.089 N 
HETATM    9  H           1     170.702 185.929 271.434  0.00  0.00     0.316 HD
BRANCH   8  10
HETATM   10  C           1     171.124 187.657 272.395  0.00  0.00     0.300 C 
BRANCH  10  11
HETATM   11  C           1     171.265 188.762 271.355  0.00  0.00     0.302 C 
BRANCH  11  12
HETATM   12  N           1     171.600 189.997 272.010  0.00  0.00     0.093 N 
HETATM   13  C           1     171.568 189.738 273.461  0.00  0.00     0.302 C 
HETATM   14  C           1     172.152 190.899 274.293  0.00  0.00     0.302 C 
HETATM   15  N           1     173.522 191.263 273.890  0.00  0.00     0.087 N 
HETATM   16  C           1     173.844 192.493 274.562  0.00  0.00     0.310 C 
HETATM   17  C           1     173.554 191.522 272.440  0.00  0.00     0.302 C 
HETATM   18  C           1     172.969 190.362 271.607  0.00  0.00     0.302 C 
ENDBRANCH  11  12
ENDBRANCH  10  11
ENDBRANCH   8  10
ENDBRANCH   7   8
ENDBRANCH   5   7
BRANCH   4  19
HETATM   19  S           1     173.707 185.181 268.449  0.00  0.00    -0.105 SA
BRANCH  19  20
HETATM   20  C           1     174.819 186.401 267.696  0.00  0.00     0.119 C 
BRANCH  20  21
HETATM   21  C           1     174.129 187.728 267.626  0.00  0.00    -0.049 A 
HETATM   22  C           1     174.782 188.878 268.070  0.00  0.00     0.008 A 
HETATM   23  C           1     174.140 190.114 268.006  0.00  0.00     0.001 A 
HETATM   24  C           1     172.845 190.202 267.497  0.00  0.00     0.000 A 
HETATM   25  C           1     172.192 189.052 267.052  0.00  0.00     0.001 A 
HETATM   26  C           1     172.834 187.816 267.117  0.00  0.00     0.008 A 
ENDBRANCH  20  21
ENDBRANCH  19  20
ENDBRANCH   4  19
BRANCH   2  27
HETATM   27  C           1     176.144 185.650 273.779  0.00  0.00    -0.024 A 
HETATM   28  C           1     175.526 185.082 274.894  0.00  0.00     0.015 A 
HETATM   29  C           1     176.129 185.175 276.148  0.00  0.00     0.037 A 
HETATM   30  C           1     177.349 185.837 276.289  0.00  0.00     0.068 A 
HETATM   31  C           1     177.966 186.406 275.175  0.00  0.00     0.037 A 
HETATM   32  C           1     177.363 186.312 273.920  0.00  0.00     0.015 A 
BRANCH  30  33
HETATM   33  O           1     177.934 185.928 277.507  0.00  0.00    -0.356 OA
HETATM   34  C           1     179.033 185.064 277.598  0.00  0.00     0.210 C 
ENDBRANCH  30  33
ENDBRANCH   2  27
TORSDOF 10
ENDMDL
