MODEL 1
REMARK VINA RESULT:      -8.5      0.000      0.000
REMARK  10 active torsions:
REMARK  status: ('A' for Active; 'I' for Inactive)
REMARK    1  A    between atoms: C2_2  and  N1_3 
REMARK    2  A    between atoms: C7_8  and  C8_9 
REMARK    3  A    between atoms: C8_9  and  C9_10 
REMARK    4  A    between atoms: C9_10  and  N2_11 
REMARK    5  A    between atoms: N2_11  and  C10_12 
REMARK    6  A    between atoms: C10_12  and  C11_13 
REMARK    7  A    between atoms: C15_17  and  C16_18 
REMARK    8  A    between atoms: C25_28  and  S1_29 
REMARK    9  A    between atoms: S1_29  and  C26_30 
REMARK   10  A    between atoms: C26_30  and  C27_31 
ROOT
HETATM    1  C11 UNL     1     171.881 186.400 278.273  1.00  0.00     0.006 A 
HETATM    2  C12 UNL     1     171.783 186.054 279.631  1.00  0.00     0.025 A 
HETATM    3  C13 UNL     1     172.892 186.185 280.475  1.00  0.00    -0.006 A 
HETATM    4  C14 UNL     1     172.808 185.873 281.839  1.00  0.00     0.026 A 
HETATM    5  C15 UNL     1     173.941 186.000 282.668  1.00  0.00    -0.025 A 
HETATM    6  C22 UNL     1     175.150 186.458 282.109  1.00  0.00     0.014 A 
HETATM    7  C23 UNL     1     175.231 186.775 280.752  1.00  0.00     0.033 A 
HETATM    8  C24 UNL     1     174.109 186.639 279.931  1.00  0.00     0.068 A 
HETATM    9  N3  UNL     1     174.193 186.940 278.611  1.00  0.00    -0.241 NA
HETATM   10  C25 UNL     1     173.125 186.851 277.776  1.00  0.00     0.102 A 
ENDROOT
BRANCH   1  11
HETATM   11  C10 UNL     1     170.663 186.291 277.391  1.00  0.00     0.311 C 
BRANCH  11  12
HETATM   12  N2  UNL     1     169.507 186.896 278.063  1.00  0.00     0.087 N 
HETATM   13  H19 UNL     1     169.771 187.092 279.054  1.00  0.00     0.316 HD
BRANCH  12  14
HETATM   14  C9  UNL     1     169.108 188.173 277.444  1.00  0.00     0.270 C 
BRANCH  14  15
HETATM   15  C8  UNL     1     170.202 189.225 277.661  1.00  0.00     0.034 C 
BRANCH  15  16
HETATM   16  C7  UNL     1     170.012 190.036 278.968  1.00  0.00    -0.010 C 
HETATM   17  C4  UNL     1     170.178 191.552 278.735  1.00  0.00     0.035 C 
HETATM   18  C3  UNL     1     170.039 192.310 280.059  1.00  0.00     0.272 C 
HETATM   19  N1  UNL     1     171.048 191.825 281.023  1.00  0.00     0.088 N 
HETATM   20  C5  UNL     1     170.866 190.390 281.323  1.00  0.00     0.272 C 
HETATM   21  C6  UNL     1     171.012 189.561 280.043  1.00  0.00     0.035 C 
BRANCH  19  22
HETATM   22  C2  UNL     1     171.130 192.659 282.245  1.00  0.00     0.268 C 
HETATM   23  C1  UNL     1     170.137 192.264 283.349  1.00  0.00     0.037 C 
ENDBRANCH  19  22
ENDBRANCH  15  16
ENDBRANCH  14  15
ENDBRANCH  12  14
ENDBRANCH  11  12
ENDBRANCH   1  11
BRANCH  10  24
HETATM   24  S1  UNL     1     173.345 187.367 276.058  1.00  0.00    -0.105 SA
BRANCH  24  25
HETATM   25  C26 UNL     1     174.036 185.769 275.503  1.00  0.00     0.119 C 
BRANCH  25  26
HETATM   26  C27 UNL     1     175.520 185.888 275.296  1.00  0.00    -0.049 A 
HETATM   27  C28 UNL     1     176.028 186.363 274.075  1.00  0.00     0.008 A 
HETATM   28  C29 UNL     1     177.407 186.508 273.890  1.00  0.00     0.001 A 
HETATM   29  C30 UNL     1     178.290 186.172 274.920  1.00  0.00     0.000 A 
HETATM   30  C31 UNL     1     177.795 185.679 276.132  1.00  0.00     0.001 A 
HETATM   31  C32 UNL     1     176.415 185.546 276.324  1.00  0.00     0.008 A 
ENDBRANCH  25  26
ENDBRANCH  24  25
ENDBRANCH  10  24
BRANCH   5  32
HETATM   32  C16 UNL     1     173.876 185.621 284.108  1.00  0.00    -0.026 A 
HETATM   33  C17 UNL     1     175.026 185.188 284.794  1.00  0.00     0.012 A 
HETATM   34  C18 UNL     1     174.938 184.743 286.116  1.00  0.00     0.001 A 
HETATM   35  C19 UNL     1     173.705 184.730 286.773  1.00  0.00     0.000 A 
HETATM   36  C20 UNL     1     172.558 185.164 286.106  1.00  0.00     0.001 A 
HETATM   37  C21 UNL     1     172.643 185.622 284.788  1.00  0.00     0.012 A 
ENDBRANCH   5  32
TORSDOF 10
ENDMDL
MODEL 2
REMARK VINA RESULT:      -8.4      2.766      8.489
REMARK  10 active torsions:
REMARK  status: ('A' for Active; 'I' for Inactive)
REMARK    1  A    between atoms: C2_2  and  N1_3 
REMARK    2  A    between atoms: C7_8  and  C8_9 
REMARK    3  A    between atoms: C8_9  and  C9_10 
REMARK    4  A    between atoms: C9_10  and  N2_11 
REMARK    5  A    between atoms: N2_11  and  C10_12 
REMARK    6  A    between atoms: C10_12  and  C11_13 
REMARK    7  A    between atoms: C15_17  and  C16_18 
REMARK    8  A    between atoms: C25_28  and  S1_29 
REMARK    9  A    between atoms: S1_29  and  C26_30 
REMARK   10  A    between atoms: C26_30  and  C27_31 
ROOT
HETATM    1  C11 UNL     1     172.871 186.339 278.405  1.00  0.00     0.006 A 
HETATM    2  C12 UNL     1     172.868 185.868 277.081  1.00  0.00     0.025 A 
HETATM    3  C13 UNL     1     174.052 185.846 276.336  1.00  0.00    -0.006 A 
HETATM    4  C14 UNL     1     174.078 185.353 275.024  1.00  0.00     0.026 A 
HETATM    5  C15 UNL     1     175.279 185.353 274.287  1.00  0.00    -0.025 A 
HETATM    6  C22 UNL     1     176.453 185.839 274.894  1.00  0.00     0.014 A 
HETATM    7  C23 UNL     1     176.430 186.323 276.203  1.00  0.00     0.033 A 
HETATM    8  C24 UNL     1     175.235 186.331 276.927  1.00  0.00     0.068 A 
HETATM    9  N3  UNL     1     175.214 186.810 278.196  1.00  0.00    -0.241 NA
HETATM   10  C25 UNL     1     174.084 186.815 278.952  1.00  0.00     0.102 A 
ENDROOT
BRANCH   1  11
HETATM   11  C10 UNL     1     171.592 186.315 279.202  1.00  0.00     0.311 C 
BRANCH  11  12
HETATM   12  N2  UNL     1     170.446 186.151 278.299  1.00  0.00     0.087 N 
HETATM   13  H19 UNL     1     169.738 185.550 278.777  1.00  0.00     0.316 HD
BRANCH  12  14
HETATM   14  C9  UNL     1     169.801 187.437 277.977  1.00  0.00     0.270 C 
BRANCH  14  15
HETATM   15  C8  UNL     1     169.176 187.373 276.578  1.00  0.00     0.034 C 
BRANCH  15  16
HETATM   16  C7  UNL     1     170.038 188.070 275.497  1.00  0.00    -0.010 C 
HETATM   17  C4  UNL     1     170.691 187.054 274.536  1.00  0.00     0.035 C 
HETATM   18  C3  UNL     1     171.579 187.780 273.520  1.00  0.00     0.272 C 
HETATM   19  N1  UNL     1     172.617 188.557 274.227  1.00  0.00     0.088 N 
HETATM   20  C5  UNL     1     172.022 189.590 275.100  1.00  0.00     0.272 C 
HETATM   21  C6  UNL     1     171.130 188.936 276.160  1.00  0.00     0.035 C 
BRANCH  19  22
HETATM   22  C2  UNL     1     173.652 189.103 273.318  1.00  0.00     0.268 C 
HETATM   23  C1  UNL     1     173.945 188.224 272.092  1.00  0.00     0.037 C 
ENDBRANCH  19  22
ENDBRANCH  15  16
ENDBRANCH  14  15
ENDBRANCH  12  14
ENDBRANCH  11  12
ENDBRANCH   1  11
BRANCH  10  24
HETATM   24  S1  UNL     1     174.207 187.396 280.659  1.00  0.00    -0.105 SA
BRANCH  24  25
HETATM   25  C26 UNL     1     174.489 185.736 281.368  1.00  0.00     0.119 C 
BRANCH  25  26
HETATM   26  C27 UNL     1     174.100 185.718 282.820  1.00  0.00    -0.049 A 
HETATM   27  C28 UNL     1     172.800 186.079 283.209  1.00  0.00     0.008 A 
HETATM   28  C29 UNL     1     172.423 186.031 284.555  1.00  0.00     0.001 A 
HETATM   29  C30 UNL     1     173.347 185.630 285.526  1.00  0.00     0.000 A 
HETATM   30  C31 UNL     1     174.650 185.288 285.151  1.00  0.00     0.001 A 
HETATM   31  C32 UNL     1     175.025 185.323 283.803  1.00  0.00     0.008 A 
ENDBRANCH  25  26
ENDBRANCH  24  25
ENDBRANCH  10  24
BRANCH   5  32
HETATM   32  C16 UNL     1     175.305 184.880 272.874  1.00  0.00    -0.026 A 
HETATM   33  C17 UNL     1     174.331 183.983 272.394  1.00  0.00     0.012 A 
HETATM   34  C18 UNL     1     174.418 183.470 271.097  1.00  0.00     0.001 A 
HETATM   35  C19 UNL     1     175.470 183.848 270.260  1.00  0.00     0.000 A 
HETATM   36  C20 UNL     1     176.437 184.743 270.721  1.00  0.00     0.001 A 
HETATM   37  C21 UNL     1     176.349 185.269 272.013  1.00  0.00     0.012 A 
ENDBRANCH   5  32
TORSDOF 10
ENDMDL
MODEL 3
REMARK VINA RESULT:      -8.4      2.276      7.009
REMARK  10 active torsions:
REMARK  status: ('A' for Active; 'I' for Inactive)
REMARK    1  A    between atoms: C2_2  and  N1_3 
REMARK    2  A    between atoms: C7_8  and  C8_9 
REMARK    3  A    between atoms: C8_9  and  C9_10 
REMARK    4  A    between atoms: C9_10  and  N2_11 
REMARK    5  A    between atoms: N2_11  and  C10_12 
REMARK    6  A    between atoms: C10_12  and  C11_13 
REMARK    7  A    between atoms: C15_17  and  C16_18 
REMARK    8  A    between atoms: C25_28  and  S1_29 
REMARK    9  A    between atoms: S1_29  and  C26_30 
REMARK   10  A    between atoms: C26_30  and  C27_31 
ROOT
HETATM    1  C11 UNL     1     172.955 187.294 280.781  1.00  0.00     0.006 A 
HETATM    2  C12 UNL     1     172.679 188.437 281.550  1.00  0.00     0.025 A 
HETATM    3  C13 UNL     1     171.684 189.335 281.149  1.00  0.00    -0.006 A 
HETATM    4  C14 UNL     1     171.372 190.467 281.917  1.00  0.00     0.026 A 
HETATM    5  C15 UNL     1     170.374 191.364 281.487  1.00  0.00    -0.025 A 
HETATM    6  C22 UNL     1     169.686 191.099 280.288  1.00  0.00     0.014 A 
HETATM    7  C23 UNL     1     169.991 189.968 279.527  1.00  0.00     0.033 A 
HETATM    8  C24 UNL     1     170.987 189.085 279.951  1.00  0.00     0.068 A 
HETATM    9  N3  UNL     1     171.287 187.992 279.205  1.00  0.00    -0.241 NA
HETATM   10  C25 UNL     1     172.228 187.089 279.587  1.00  0.00     0.102 A 
ENDROOT
BRANCH   1  11
HETATM   11  C10 UNL     1     174.003 186.319 281.253  1.00  0.00     0.311 C 
BRANCH  11  12
HETATM   12  N2  UNL     1     175.032 187.030 282.023  1.00  0.00     0.087 N 
HETATM   13  H19 UNL     1     174.552 187.648 282.715  1.00  0.00     0.316 HD
BRANCH  12  14
HETATM   14  C9  UNL     1     175.904 186.108 282.773  1.00  0.00     0.270 C 
BRANCH  14  15
HETATM   15  C8  UNL     1     175.051 185.130 283.592  1.00  0.00     0.034 C 
BRANCH  15  16
HETATM   16  C7  UNL     1     174.570 185.727 284.938  1.00  0.00    -0.010 C 
HETATM   17  C4  UNL     1     175.300 185.096 286.142  1.00  0.00     0.035 C 
HETATM   18  C3  UNL     1     174.756 185.672 287.454  1.00  0.00     0.272 C 
HETATM   19  N1  UNL     1     173.303 185.422 287.546  1.00  0.00     0.088 N 
HETATM   20  C5  UNL     1     172.569 186.080 286.445  1.00  0.00     0.272 C 
HETATM   21  C6  UNL     1     173.047 185.538 285.094  1.00  0.00     0.035 C 
BRANCH  19  22
HETATM   22  C2  UNL     1     172.743 185.745 288.880  1.00  0.00     0.268 C 
HETATM   23  C1  UNL     1     173.767 185.697 290.024  1.00  0.00     0.037 C 
ENDBRANCH  19  22
ENDBRANCH  15  16
ENDBRANCH  14  15
ENDBRANCH  12  14
ENDBRANCH  11  12
ENDBRANCH   1  11
BRANCH  10  24
HETATM   24  S1  UNL     1     172.470 185.627 278.552  1.00  0.00    -0.105 SA
BRANCH  24  25
HETATM   25  C26 UNL     1     172.962 186.569 277.065  1.00  0.00     0.119 C 
BRANCH  25  26
HETATM   26  C27 UNL     1     174.355 186.189 276.646  1.00  0.00    -0.049 A 
HETATM   27  C28 UNL     1     174.554 185.295 275.582  1.00  0.00     0.008 A 
HETATM   28  C29 UNL     1     175.849 184.964 275.166  1.00  0.00     0.001 A 
HETATM   29  C30 UNL     1     176.955 185.520 275.817  1.00  0.00     0.000 A 
HETATM   30  C31 UNL     1     176.767 186.395 276.891  1.00  0.00     0.001 A 
HETATM   31  C32 UNL     1     175.473 186.737 277.300  1.00  0.00     0.008 A 
ENDBRANCH  25  26
ENDBRANCH  24  25
ENDBRANCH  10  24
BRANCH   5  32
HETATM   32  C16 UNL     1     170.073 192.597 282.269  1.00  0.00    -0.026 A 
HETATM   33  C17 UNL     1     170.477 192.718 283.612  1.00  0.00     0.012 A 
HETATM   34  C18 UNL     1     170.107 193.835 284.366  1.00  0.00     0.001 A 
HETATM   35  C19 UNL     1     169.338 194.849 283.790  1.00  0.00     0.000 A 
HETATM   36  C20 UNL     1     168.938 194.745 282.456  1.00  0.00     0.001 A 
HETATM   37  C21 UNL     1     169.315 193.635 281.695  1.00  0.00     0.012 A 
ENDBRANCH   5  32
TORSDOF 10
ENDMDL
MODEL 4
REMARK VINA RESULT:      -8.3      3.301      7.931
REMARK  10 active torsions:
REMARK  status: ('A' for Active; 'I' for Inactive)
REMARK    1  A    between atoms: C2_2  and  N1_3 
REMARK    2  A    between atoms: C7_8  and  C8_9 
REMARK    3  A    between atoms: C8_9  and  C9_10 
REMARK    4  A    between atoms: C9_10  and  N2_11 
REMARK    5  A    between atoms: N2_11  and  C10_12 
REMARK    6  A    between atoms: C10_12  and  C11_13 
REMARK    7  A    between atoms: C15_17  and  C16_18 
REMARK    8  A    between atoms: C25_28  and  S1_29 
REMARK    9  A    between atoms: S1_29  and  C26_30 
REMARK   10  A    between atoms: C26_30  and  C27_31 
ROOT
HETATM    1  C11 UNL     1     172.422 187.476 283.232  1.00  0.00     0.006 A 
HETATM    2  C12 UNL     1     171.822 188.631 283.763  1.00  0.00     0.025 A 
HETATM    3  C13 UNL     1     171.548 189.727 282.939  1.00  0.00    -0.006 A 
HETATM    4  C14 UNL     1     170.923 190.878 283.441  1.00  0.00     0.026 A 
HETATM    5  C15 UNL     1     170.668 191.975 282.595  1.00  0.00    -0.025 A 
HETATM    6  C22 UNL     1     171.035 191.893 281.238  1.00  0.00     0.014 A 
HETATM    7  C23 UNL     1     171.651 190.745 280.736  1.00  0.00     0.033 A 
HETATM    8  C24 UNL     1     171.910 189.662 281.580  1.00  0.00     0.068 A 
HETATM    9  N3  UNL     1     172.517 188.551 281.090  1.00  0.00    -0.241 NA
HETATM   10  C25 UNL     1     172.767 187.461 281.862  1.00  0.00     0.102 A 
ENDROOT
BRANCH   1  11
HETATM   11  C10 UNL     1     172.671 186.292 284.130  1.00  0.00     0.311 C 
BRANCH  11  12
HETATM   12  N2  UNL     1     174.019 186.378 284.706  1.00  0.00     0.087 N 
HETATM   13  H19 UNL     1     174.076 187.254 285.272  1.00  0.00     0.316 HD
BRANCH  12  14
HETATM   14  C9  UNL     1     174.317 185.244 285.600  1.00  0.00     0.270 C 
BRANCH  14  15
HETATM   15  C8  UNL     1     174.825 185.764 286.951  1.00  0.00     0.034 C 
BRANCH  15  16
HETATM   16  C7  UNL     1     173.689 185.985 287.980  1.00  0.00    -0.010 C 
HETATM   17  C4  UNL     1     172.968 187.333 287.762  1.00  0.00     0.035 C 
HETATM   18  C3  UNL     1     171.892 187.539 288.833  1.00  0.00     0.272 C 
HETATM   19  N1  UNL     1     172.507 187.496 290.175  1.00  0.00     0.088 N 
HETATM   20  C5  UNL     1     173.140 186.188 290.441  1.00  0.00     0.272 C 
HETATM   21  C6  UNL     1     174.246 185.920 289.417  1.00  0.00     0.035 C 
BRANCH  19  22
HETATM   22  C2  UNL     1     171.576 187.911 291.252  1.00  0.00     0.268 C 
HETATM   23  C1  UNL     1     171.577 186.987 292.480  1.00  0.00     0.037 C 
ENDBRANCH  19  22
ENDBRANCH  15  16
ENDBRANCH  14  15
ENDBRANCH  12  14
ENDBRANCH  11  12
ENDBRANCH   1  11
BRANCH  10  24
HETATM   24  S1  UNL     1     173.497 186.010 281.070  1.00  0.00    -0.105 SA
BRANCH  24  25
HETATM   25  C26 UNL     1     172.494 186.141 279.549  1.00  0.00     0.119 C 
BRANCH  25  26
HETATM   26  C27 UNL     1     173.385 186.149 278.338  1.00  0.00    -0.049 A 
HETATM   27  C28 UNL     1     172.989 185.486 277.165  1.00  0.00     0.008 A 
HETATM   28  C29 UNL     1     173.799 185.519 276.025  1.00  0.00     0.001 A 
HETATM   29  C30 UNL     1     175.015 186.209 276.050  1.00  0.00     0.000 A 
HETATM   30  C31 UNL     1     175.427 186.856 277.220  1.00  0.00     0.001 A 
HETATM   31  C32 UNL     1     174.612 186.834 278.357  1.00  0.00     0.008 A 
ENDBRANCH  25  26
ENDBRANCH  24  25
ENDBRANCH  10  24
BRANCH   5  32
HETATM   32  C16 UNL     1     170.052 193.222 283.132  1.00  0.00    -0.026 A 
HETATM   33  C17 UNL     1     169.299 194.072 282.301  1.00  0.00     0.012 A 
HETATM   34  C18 UNL     1     168.806 195.286 282.788  1.00  0.00     0.001 A 
HETATM   35  C19 UNL     1     169.053 195.666 284.109  1.00  0.00     0.000 A 
HETATM   36  C20 UNL     1     169.792 194.828 284.946  1.00  0.00     0.001 A 
HETATM   37  C21 UNL     1     170.276 193.607 284.468  1.00  0.00     0.012 A 
ENDBRANCH   5  32
TORSDOF 10
ENDMDL
MODEL 5
REMARK VINA RESULT:      -8.3      7.542     13.137
REMARK  10 active torsions:
REMARK  status: ('A' for Active; 'I' for Inactive)
REMARK    1  A    between atoms: C2_2  and  N1_3 
REMARK    2  A    between atoms: C7_8  and  C8_9 
REMARK    3  A    between atoms: C8_9  and  C9_10 
REMARK    4  A    between atoms: C9_10  and  N2_11 
REMARK    5  A    between atoms: N2_11  and  C10_12 
REMARK    6  A    between atoms: C10_12  and  C11_13 
REMARK    7  A    between atoms: C15_17  and  C16_18 
REMARK    8  A    between atoms: C25_28  and  S1_29 
REMARK    9  A    between atoms: S1_29  and  C26_30 
REMARK   10  A    between atoms: C26_30  and  C27_31 
ROOT
HETATM    1  C11 UNL     1     173.190 185.699 269.134  1.00  0.00     0.006 A 
HETATM    2  C12 UNL     1     173.575 185.147 267.901  1.00  0.00     0.025 A 
HETATM    3  C13 UNL     1     174.904 184.768 267.681  1.00  0.00    -0.006 A 
HETATM    4  C14 UNL     1     175.304 184.188 266.468  1.00  0.00     0.026 A 
HETATM    5  C15 UNL     1     176.651 183.826 266.264  1.00  0.00    -0.025 A 
HETATM    6  C22 UNL     1     177.581 184.041 267.299  1.00  0.00     0.014 A 
HETATM    7  C23 UNL     1     177.181 184.612 268.509  1.00  0.00     0.033 A 
HETATM    8  C24 UNL     1     175.847 184.978 268.704  1.00  0.00     0.068 A 
HETATM    9  N3  UNL     1     175.464 185.541 269.878  1.00  0.00    -0.241 NA
HETATM   10  C25 UNL     1     174.175 185.890 270.129  1.00  0.00     0.102 A 
ENDROOT
BRANCH   1  11
HETATM   11  C10 UNL     1     171.745 186.062 269.363  1.00  0.00     0.311 C 
BRANCH  11  12
HETATM   12  N2  UNL     1     171.088 186.327 268.077  1.00  0.00     0.087 N 
HETATM   13  H19 UNL     1     170.176 185.820 268.065  1.00  0.00     0.316 HD
BRANCH  12  14
HETATM   14  C9  UNL     1     170.808 187.761 267.878  1.00  0.00     0.270 C 
BRANCH  14  15
HETATM   15  C8  UNL     1     171.802 188.355 266.873  1.00  0.00     0.034 C 
BRANCH  15  16
HETATM   16  C7  UNL     1     172.845 189.289 267.535  1.00  0.00    -0.010 C 
HETATM   17  C4  UNL     1     174.251 188.652 267.569  1.00  0.00     0.035 C 
HETATM   18  C3  UNL     1     175.238 189.583 268.281  1.00  0.00     0.272 C 
HETATM   19  N1  UNL     1     174.766 189.859 269.653  1.00  0.00     0.088 N 
HETATM   20  C5  UNL     1     173.454 190.539 269.649  1.00  0.00     0.272 C 
HETATM   21  C6  UNL     1     172.405 189.655 268.967  1.00  0.00     0.035 C 
BRANCH  19  22
HETATM   22  C2  UNL     1     175.773 190.564 270.482  1.00  0.00     0.268 C 
HETATM   23  C1  UNL     1     175.442 192.038 270.761  1.00  0.00     0.037 C 
ENDBRANCH  19  22
ENDBRANCH  15  16
ENDBRANCH  14  15
ENDBRANCH  12  14
ENDBRANCH  11  12
ENDBRANCH   1  11
BRANCH  10  24
HETATM   24  S1  UNL     1     173.775 186.546 271.764  1.00  0.00    -0.105 SA
BRANCH  24  25
HETATM   25  C26 UNL     1     174.238 185.022 272.660  1.00  0.00     0.119 C 
BRANCH  25  26
HETATM   26  C27 UNL     1     175.328 185.314 273.654  1.00  0.00    -0.049 A 
HETATM   27  C28 UNL     1     176.472 186.026 273.260  1.00  0.00     0.008 A 
HETATM   28  C29 UNL     1     177.473 186.330 274.189  1.00  0.00     0.001 A 
HETATM   29  C30 UNL     1     177.341 185.917 275.518  1.00  0.00     0.000 A 
HETATM   30  C31 UNL     1     176.215 185.190 275.916  1.00  0.00     0.001 A 
HETATM   31  C32 UNL     1     175.207 184.897 274.991  1.00  0.00     0.008 A 
ENDBRANCH  25  26
ENDBRANCH  24  25
ENDBRANCH  10  24
BRANCH   5  32
HETATM   32  C16 UNL     1     177.096 183.258 264.960  1.00  0.00    -0.026 A 
HETATM   33  C17 UNL     1     177.845 182.068 264.908  1.00  0.00     0.012 A 
HETATM   34  C18 UNL     1     178.341 181.594 263.690  1.00  0.00     0.001 A 
HETATM   35  C19 UNL     1     178.090 182.295 262.509  1.00  0.00     0.000 A 
HETATM   36  C20 UNL     1     177.341 183.473 262.545  1.00  0.00     0.001 A 
HETATM   37  C21 UNL     1     176.833 183.945 263.759  1.00  0.00     0.012 A 
ENDBRANCH   5  32
TORSDOF 10
ENDMDL
MODEL 6
REMARK VINA RESULT:      -8.3      8.429     12.547
REMARK  10 active torsions:
REMARK  status: ('A' for Active; 'I' for Inactive)
REMARK    1  A    between atoms: C2_2  and  N1_3 
REMARK    2  A    between atoms: C7_8  and  C8_9 
REMARK    3  A    between atoms: C8_9  and  C9_10 
REMARK    4  A    between atoms: C9_10  and  N2_11 
REMARK    5  A    between atoms: N2_11  and  C10_12 
REMARK    6  A    between atoms: C10_12  and  C11_13 
REMARK    7  A    between atoms: C15_17  and  C16_18 
REMARK    8  A    between atoms: C25_28  and  S1_29 
REMARK    9  A    between atoms: S1_29  and  C26_30 
REMARK   10  A    between atoms: C26_30  and  C27_31 
ROOT
HETATM    1  C11 UNL     1     175.672 185.325 267.900  1.00  0.00     0.006 A 
HETATM    2  C12 UNL     1     175.688 186.452 268.740  1.00  0.00     0.025 A 
HETATM    3  C13 UNL     1     174.838 187.533 268.487  1.00  0.00    -0.006 A 
HETATM    4  C14 UNL     1     174.817 188.655 269.329  1.00  0.00     0.026 A 
HETATM    5  C15 UNL     1     173.961 189.739 269.048  1.00  0.00    -0.025 A 
HETATM    6  C22 UNL     1     173.118 189.671 267.922  1.00  0.00     0.014 A 
HETATM    7  C23 UNL     1     173.134 188.551 267.088  1.00  0.00     0.033 A 
HETATM    8  C24 UNL     1     173.991 187.483 267.364  1.00  0.00     0.068 A 
HETATM    9  N3  UNL     1     174.009 186.400 266.546  1.00  0.00    -0.241 NA
HETATM   10  C25 UNL     1     174.803 185.324 266.785  1.00  0.00     0.102 A 
ENDROOT
BRANCH   1  11
HETATM   11  C10 UNL     1     176.567 184.154 268.215  1.00  0.00     0.311 C 
BRANCH  11  12
HETATM   12  N2  UNL     1     175.823 183.152 268.988  1.00  0.00     0.087 N 
HETATM   13  H19 UNL     1     176.010 182.213 268.571  1.00  0.00     0.316 HD
BRANCH  12  14
HETATM   14  C9  UNL     1     176.245 183.110 270.400  1.00  0.00     0.270 C 
BRANCH  14  15
HETATM   15  C8  UNL     1     175.014 183.115 271.315  1.00  0.00     0.034 C 
BRANCH  15  16
HETATM   16  C7  UNL     1     174.917 184.388 272.192  1.00  0.00    -0.010 C 
HETATM   17  C4  UNL     1     173.721 185.276 271.789  1.00  0.00     0.035 C 
HETATM   18  C3  UNL     1     173.694 186.549 272.641  1.00  0.00     0.272 C 
HETATM   19  N1  UNL     1     174.962 187.289 272.475  1.00  0.00     0.088 N 
HETATM   20  C5  UNL     1     176.120 186.489 272.925  1.00  0.00     0.272 C 
HETATM   21  C6  UNL     1     176.224 185.202 272.101  1.00  0.00     0.035 C 
BRANCH  19  22
HETATM   22  C2  UNL     1     174.929 188.640 273.084  1.00  0.00     0.268 C 
HETATM   23  C1  UNL     1     173.535 189.287 273.111  1.00  0.00     0.037 C 
ENDBRANCH  19  22
ENDBRANCH  15  16
ENDBRANCH  14  15
ENDBRANCH  12  14
ENDBRANCH  11  12
ENDBRANCH   1  11
BRANCH  10  24
HETATM   24  S1  UNL     1     174.670 183.906 265.672  1.00  0.00    -0.105 SA
BRANCH  24  25
HETATM   25  C26 UNL     1     175.894 184.536 264.471  1.00  0.00     0.119 C 
BRANCH  25  26
HETATM   26  C27 UNL     1     176.858 183.446 264.090  1.00  0.00    -0.049 A 
HETATM   27  C28 UNL     1     177.447 183.437 262.815  1.00  0.00     0.008 A 
HETATM   28  C29 UNL     1     178.369 182.443 262.468  1.00  0.00     0.001 A 
HETATM   29  C30 UNL     1     178.704 181.447 263.390  1.00  0.00     0.000 A 
HETATM   30  C31 UNL     1     178.107 181.436 264.655  1.00  0.00     0.001 A 
HETATM   31  C32 UNL     1     177.194 182.436 265.008  1.00  0.00     0.008 A 
ENDBRANCH  25  26
ENDBRANCH  24  25
ENDBRANCH  10  24
BRANCH   5  32
HETATM   32  C16 UNL     1     173.970 190.957 269.907  1.00  0.00    -0.026 A 
HETATM   33  C17 UNL     1     175.171 191.447 270.454  1.00  0.00     0.012 A 
HETATM   34  C18 UNL     1     175.159 192.532 271.335  1.00  0.00     0.001 A 
HETATM   35  C19 UNL     1     173.952 193.145 271.678  1.00  0.00     0.000 A 
HETATM   36  C20 UNL     1     172.754 192.674 271.136  1.00  0.00     0.001 A 
HETATM   37  C21 UNL     1     172.763 191.597 270.245  1.00  0.00     0.012 A 
ENDBRANCH   5  32
TORSDOF 10
ENDMDL
MODEL 7
REMARK VINA RESULT:      -8.2      2.861      5.182
REMARK  10 active torsions:
REMARK  status: ('A' for Active; 'I' for Inactive)
REMARK    1  A    between atoms: C2_2  and  N1_3 
REMARK    2  A    between atoms: C7_8  and  C8_9 
REMARK    3  A    between atoms: C8_9  and  C9_10 
REMARK    4  A    between atoms: C9_10  and  N2_11 
REMARK    5  A    between atoms: N2_11  and  C10_12 
REMARK    6  A    between atoms: C10_12  and  C11_13 
REMARK    7  A    between atoms: C15_17  and  C16_18 
REMARK    8  A    between atoms: C25_28  and  S1_29 
REMARK    9  A    between atoms: S1_29  and  C26_30 
REMARK   10  A    between atoms: C26_30  and  C27_31 
ROOT
HETATM    1  C11 UNL     1     172.936 188.072 283.050  1.00  0.00     0.006 A 
HETATM    2  C12 UNL     1     172.521 188.167 284.389  1.00  0.00     0.025 A 
HETATM    3  C13 UNL     1     173.084 187.335 285.363  1.00  0.00    -0.006 A 
HETATM    4  C14 UNL     1     172.707 187.433 286.710  1.00  0.00     0.026 A 
HETATM    5  C15 UNL     1     173.277 186.576 287.673  1.00  0.00    -0.025 A 
HETATM    6  C22 UNL     1     174.241 185.634 287.264  1.00  0.00     0.014 A 
HETATM    7  C23 UNL     1     174.622 185.541 285.924  1.00  0.00     0.033 A 
HETATM    8  C24 UNL     1     174.047 186.386 284.971  1.00  0.00     0.068 A 
HETATM    9  N3  UNL     1     174.413 186.287 283.668  1.00  0.00    -0.241 NA
HETATM   10  C25 UNL     1     173.905 187.102 282.707  1.00  0.00     0.102 A 
ENDROOT
BRANCH   1  11
HETATM   11  C10 UNL     1     172.345 189.006 282.025  1.00  0.00     0.311 C 
BRANCH  11  12
HETATM   12  N2  UNL     1     173.194 190.197 281.890  1.00  0.00     0.087 N 
HETATM   13  H19 UNL     1     173.889 190.018 281.132  1.00  0.00     0.316 HD
BRANCH  12  14
HETATM   14  C9  UNL     1     172.419 191.394 281.516  1.00  0.00     0.270 C 
BRANCH  14  15
HETATM   15  C8  UNL     1     170.934 191.035 281.382  1.00  0.00     0.034 C 
BRANCH  15  16
HETATM   16  C7  UNL     1     170.033 191.802 282.381  1.00  0.00    -0.010 C 
HETATM   17  C4  UNL     1     170.803 192.927 283.105  1.00  0.00     0.035 C 
HETATM   18  C3  UNL     1     169.893 193.622 284.124  1.00  0.00     0.272 C 
HETATM   19  N1  UNL     1     169.388 192.635 285.100  1.00  0.00     0.088 N 
HETATM   20  C5  UNL     1     168.583 191.585 284.443  1.00  0.00     0.272 C 
HETATM   21  C6  UNL     1     169.435 190.830 283.419  1.00  0.00     0.035 C 
BRANCH  19  22
HETATM   22  C2  UNL     1     168.688 193.260 286.247  1.00  0.00     0.268 C 
HETATM   23  C1  UNL     1     168.496 192.329 287.455  1.00  0.00     0.037 C 
ENDBRANCH  19  22
ENDBRANCH  15  16
ENDBRANCH  14  15
ENDBRANCH  12  14
ENDBRANCH  11  12
ENDBRANCH   1  11
BRANCH  10  24
HETATM   24  S1  UNL     1     174.541 186.931 281.024  1.00  0.00    -0.105 SA
BRANCH  24  25
HETATM   25  C26 UNL     1     173.222 185.792 280.475  1.00  0.00     0.119 C 
BRANCH  25  26
HETATM   26  C27 UNL     1     172.887 186.043 279.031  1.00  0.00    -0.049 A 
HETATM   27  C28 UNL     1     171.569 185.879 278.572  1.00  0.00     0.008 A 
HETATM   28  C29 UNL     1     171.246 186.143 277.237  1.00  0.00     0.001 A 
HETATM   29  C30 UNL     1     172.239 186.566 276.348  1.00  0.00     0.000 A 
HETATM   30  C31 UNL     1     173.558 186.712 276.790  1.00  0.00     0.001 A 
HETATM   31  C32 UNL     1     173.880 186.461 278.129  1.00  0.00     0.008 A 
ENDBRANCH  25  26
ENDBRANCH  24  25
ENDBRANCH  10  24
BRANCH   5  32
HETATM   32  C16 UNL     1     172.844 186.637 289.098  1.00  0.00    -0.026 A 
HETATM   33  C17 UNL     1     172.020 187.681 289.558  1.00  0.00     0.012 A 
HETATM   34  C18 UNL     1     171.697 187.785 290.914  1.00  0.00     0.001 A 
HETATM   35  C19 UNL     1     172.186 186.847 291.826  1.00  0.00     0.000 A 
HETATM   36  C20 UNL     1     172.998 185.802 291.381  1.00  0.00     0.001 A 
HETATM   37  C21 UNL     1     173.313 185.687 290.024  1.00  0.00     0.012 A 
ENDBRANCH   5  32
TORSDOF 10
ENDMDL
MODEL 8
REMARK VINA RESULT:      -8.2      4.082      8.318
REMARK  10 active torsions:
REMARK  status: ('A' for Active; 'I' for Inactive)
REMARK    1  A    between atoms: C2_2  and  N1_3 
REMARK    2  A    between atoms: C7_8  and  C8_9 
REMARK    3  A    between atoms: C8_9  and  C9_10 
REMARK    4  A    between atoms: C9_10  and  N2_11 
REMARK    5  A    between atoms: N2_11  and  C10_12 
REMARK    6  A    between atoms: C10_12  and  C11_13 
REMARK    7  A    between atoms: C15_17  and  C16_18 
REMARK    8  A    between atoms: C25_28  and  S1_29 
REMARK    9  A    between atoms: S1_29  and  C26_30 
REMARK   10  A    between atoms: C26_30  and  C27_31 
ROOT
HETATM    1  C11 UNL     1     174.958 187.229 275.928  1.00  0.00     0.006 A 
HETATM    2  C12 UNL     1     175.164 186.975 277.294  1.00  0.00     0.025 A 
HETATM    3  C13 UNL     1     174.074 186.752 278.143  1.00  0.00    -0.006 A 
HETATM    4  C14 UNL     1     174.257 186.468 279.504  1.00  0.00     0.026 A 
HETATM    5  C15 UNL     1     173.144 186.260 280.343  1.00  0.00    -0.025 A 
HETATM    6  C22 UNL     1     171.850 186.327 279.792  1.00  0.00     0.014 A 
HETATM    7  C23 UNL     1     171.668 186.603 278.436  1.00  0.00     0.033 A 
HETATM    8  C24 UNL     1     172.773 186.818 277.608  1.00  0.00     0.068 A 
HETATM    9  N3  UNL     1     172.592 187.094 276.293  1.00  0.00    -0.241 NA
HETATM   10  C25 UNL     1     173.633 187.284 275.441  1.00  0.00     0.102 A 
ENDROOT
BRANCH   1  11
HETATM   11  C10 UNL     1     176.149 187.425 275.025  1.00  0.00     0.311 C 
BRANCH  11  12
HETATM   12  N2  UNL     1     176.639 186.122 274.559  1.00  0.00     0.087 N 
HETATM   13  H19 UNL     1     175.925 185.399 274.799  1.00  0.00     0.316 HD
BRANCH  12  14
HETATM   14  C9  UNL     1     176.837 186.090 273.098  1.00  0.00     0.270 C 
BRANCH  14  15
HETATM   15  C8  UNL     1     175.857 185.098 272.459  1.00  0.00     0.034 C 
BRANCH  15  16
HETATM   16  C7  UNL     1     176.151 184.837 270.961  1.00  0.00    -0.010 C 
HETATM   17  C4  UNL     1     175.327 185.764 270.041  1.00  0.00     0.035 C 
HETATM   18  C3  UNL     1     175.604 185.435 268.571  1.00  0.00     0.272 C 
HETATM   19  N1  UNL     1     175.274 184.020 268.303  1.00  0.00     0.088 N 
HETATM   20  C5  UNL     1     176.102 183.106 269.116  1.00  0.00     0.272 C 
HETATM   21  C6  UNL     1     175.863 183.364 270.607  1.00  0.00     0.035 C 
BRANCH  19  22
HETATM   22  C2  UNL     1     175.298 183.683 266.860  1.00  0.00     0.268 C 
HETATM   23  C1  UNL     1     175.766 184.829 265.950  1.00  0.00     0.037 C 
ENDBRANCH  19  22
ENDBRANCH  15  16
ENDBRANCH  14  15
ENDBRANCH  12  14
ENDBRANCH  11  12
ENDBRANCH   1  11
BRANCH  10  24
HETATM   24  S1  UNL     1     173.262 187.556 273.693  1.00  0.00    -0.105 SA
BRANCH  24  25
HETATM   25  C26 UNL     1     173.350 189.378 273.797  1.00  0.00     0.119 C 
BRANCH  25  26
HETATM   26  C27 UNL     1     174.083 189.932 272.606  1.00  0.00    -0.049 A 
HETATM   27  C28 UNL     1     174.984 189.125 271.893  1.00  0.00     0.008 A 
HETATM   28  C29 UNL     1     175.643 189.625 270.764  1.00  0.00     0.001 A 
HETATM   29  C30 UNL     1     175.412 190.938 270.345  1.00  0.00     0.000 A 
HETATM   30  C31 UNL     1     174.533 191.757 271.061  1.00  0.00     0.001 A 
HETATM   31  C32 UNL     1     173.863 191.254 272.183  1.00  0.00     0.008 A 
ENDBRANCH  25  26
ENDBRANCH  24  25
ENDBRANCH  10  24
BRANCH   5  32
HETATM   32  C16 UNL     1     173.328 186.009 281.801  1.00  0.00    -0.026 A 
HETATM   33  C17 UNL     1     174.251 185.051 282.259  1.00  0.00     0.012 A 
HETATM   34  C18 UNL     1     174.348 184.754 283.621  1.00  0.00     0.001 A 
HETATM   35  C19 UNL     1     173.532 185.411 284.544  1.00  0.00     0.000 A 
HETATM   36  C20 UNL     1     172.617 186.370 284.104  1.00  0.00     0.001 A 
HETATM   37  C21 UNL     1     172.525 186.679 282.744  1.00  0.00     0.012 A 
ENDBRANCH   5  32
TORSDOF 10
ENDMDL
MODEL 9
REMARK VINA RESULT:      -8.2      2.982      5.655
REMARK  10 active torsions:
REMARK  status: ('A' for Active; 'I' for Inactive)
REMARK    1  A    between atoms: C2_2  and  N1_3 
REMARK    2  A    between atoms: C7_8  and  C8_9 
REMARK    3  A    between atoms: C8_9  and  C9_10 
REMARK    4  A    between atoms: C9_10  and  N2_11 
REMARK    5  A    between atoms: N2_11  and  C10_12 
REMARK    6  A    between atoms: C10_12  and  C11_13 
REMARK    7  A    between atoms: C15_17  and  C16_18 
REMARK    8  A    between atoms: C25_28  and  S1_29 
REMARK    9  A    between atoms: S1_29  and  C26_30 
REMARK   10  A    between atoms: C26_30  and  C27_31 
ROOT
HETATM    1  C11 UNL     1     173.358 187.946 283.726  1.00  0.00     0.006 A 
HETATM    2  C12 UNL     1     172.923 188.189 285.039  1.00  0.00     0.025 A 
HETATM    3  C13 UNL     1     173.208 187.273 286.058  1.00  0.00    -0.006 A 
HETATM    4  C14 UNL     1     172.809 187.509 287.382  1.00  0.00     0.026 A 
HETATM    5  C15 UNL     1     173.096 186.567 288.390  1.00  0.00    -0.025 A 
HETATM    6  C22 UNL     1     173.800 185.395 288.050  1.00  0.00     0.014 A 
HETATM    7  C23 UNL     1     174.203 185.163 286.734  1.00  0.00     0.033 A 
HETATM    8  C24 UNL     1     173.909 186.095 285.736  1.00  0.00     0.068 A 
HETATM    9  N3  UNL     1     174.295 185.862 284.456  1.00  0.00    -0.241 NA
HETATM   10  C25 UNL     1     174.058 186.749 283.454  1.00  0.00     0.102 A 
ENDROOT
BRANCH   1  11
HETATM   11  C10 UNL     1     173.076 188.966 282.652  1.00  0.00     0.311 C 
BRANCH  11  12
HETATM   12  N2  UNL     1     172.296 190.076 283.214  1.00  0.00     0.087 N 
HETATM   13  H19 UNL     1     172.844 190.956 283.086  1.00  0.00     0.316 HD
BRANCH  12  14
HETATM   14  C9  UNL     1     171.001 190.249 282.532  1.00  0.00     0.270 C 
BRANCH  14  15
HETATM   15  C8  UNL     1     171.215 190.900 281.159  1.00  0.00     0.034 C 
BRANCH  15  16
HETATM   16  C7  UNL     1     170.386 190.230 280.036  1.00  0.00    -0.010 C 
HETATM   17  C4  UNL     1     170.955 188.850 279.644  1.00  0.00     0.035 C 
HETATM   18  C3  UNL     1     170.141 188.248 278.493  1.00  0.00     0.272 C 
HETATM   19  N1  UNL     1     170.164 189.162 277.332  1.00  0.00     0.088 N 
HETATM   20  C5  UNL     1     169.556 190.469 277.658  1.00  0.00     0.272 C 
HETATM   21  C6  UNL     1     170.331 191.143 278.793  1.00  0.00     0.035 C 
BRANCH  19  22
HETATM   22  C2  UNL     1     169.594 188.555 276.106  1.00  0.00     0.268 C 
HETATM   23  C1  UNL     1     169.067 187.124 276.294  1.00  0.00     0.037 C 
ENDBRANCH  19  22
ENDBRANCH  15  16
ENDBRANCH  14  15
ENDBRANCH  12  14
ENDBRANCH  11  12
ENDBRANCH   1  11
BRANCH  10  24
HETATM   24  S1  UNL     1     174.703 186.364 281.809  1.00  0.00    -0.105 SA
BRANCH  24  25
HETATM   25  C26 UNL     1     173.067 185.994 281.084  1.00  0.00     0.119 C 
BRANCH  25  26
HETATM   26  C27 UNL     1     173.145 186.021 279.583  1.00  0.00    -0.049 A 
HETATM   27  C28 UNL     1     172.207 185.314 278.813  1.00  0.00     0.008 A 
HETATM   28  C29 UNL     1     172.256 185.363 277.416  1.00  0.00     0.001 A 
HETATM   29  C30 UNL     1     173.248 186.113 276.777  1.00  0.00     0.000 A 
HETATM   30  C31 UNL     1     174.199 186.804 277.535  1.00  0.00     0.001 A 
HETATM   31  C32 UNL     1     174.144 186.766 278.933  1.00  0.00     0.008 A 
ENDBRANCH  25  26
ENDBRANCH  24  25
ENDBRANCH  10  24
BRANCH   5  32
HETATM   32  C16 UNL     1     172.630 186.784 289.789  1.00  0.00    -0.026 A 
HETATM   33  C17 UNL     1     172.885 185.830 290.792  1.00  0.00     0.012 A 
HETATM   34  C18 UNL     1     172.363 185.996 292.078  1.00  0.00     0.001 A 
HETATM   35  C19 UNL     1     171.585 187.116 292.381  1.00  0.00     0.000 A 
HETATM   36  C20 UNL     1     171.331 188.073 291.397  1.00  0.00     0.001 A 
HETATM   37  C21 UNL     1     171.862 187.918 290.114  1.00  0.00     0.012 A 
ENDBRANCH   5  32
TORSDOF 10
ENDMDL
