MODEL 1
REMARK VINA RESULT:      -8.1      0.000      0.000
REMARK  12 active torsions:
REMARK  status: ('A' for Active; 'I' for Inactive)
REMARK    1  A    between atoms: O1_2  and  C2_3 
REMARK    2  A    between atoms: C3_4  and  O2_5 
REMARK    3  A    between atoms: C5_7  and  O3_8 
REMARK    4  A    between atoms: C8_12  and  S1_13 
REMARK    5  A    between atoms: S1_13  and  C9_14 
REMARK    6  A    between atoms: C9_14  and  C10_15 
REMARK    7  A    between atoms: C16_21  and  C17_22 
REMARK    8  A    between atoms: C17_22  and  N2_23 
REMARK    9  A    between atoms: N2_23  and  C18_24 
REMARK   10  A    between atoms: C18_24  and  C19_25 
REMARK   11  A    between atoms: C19_25  and  C20_26 
REMARK   12  A    between atoms: N3_29  and  C23_30 
ROOT
HETATM    1  C2  UNL     1     171.278 191.689 281.897  1.00  0.00     0.105 A 
HETATM    2  C3  UNL     1     170.271 191.345 280.955  1.00  0.00     0.137 A 
HETATM    3  C5  UNL     1     170.350 190.099 280.272  1.00  0.00     0.134 A 
HETATM    4  C7  UNL     1     171.441 189.250 280.503  1.00  0.00     0.104 A 
HETATM    5  N1  UNL     1     171.539 188.072 279.827  1.00  0.00    -0.238 NA
HETATM    6  C8  UNL     1     172.545 187.185 280.045  1.00  0.00     0.102 A 
HETATM    7  C16 UNL     1     173.538 187.472 281.005  1.00  0.00     0.006 A 
HETATM    8  C30 UNL     1     173.488 188.707 281.669  1.00  0.00     0.025 A 
HETATM    9  C31 UNL     1     172.437 189.599 281.429  1.00  0.00    -0.001 A 
HETATM   10  C32 UNL     1     172.354 190.810 282.116  1.00  0.00     0.053 A 
ENDROOT
BRANCH   7  11
HETATM   11  C17 UNL     1     174.585 186.463 281.397  1.00  0.00     0.311 C 
BRANCH  11  12
HETATM   12  N2  UNL     1     175.558 187.093 282.301  1.00  0.00     0.087 N 
HETATM   13  H19 UNL     1     175.146 187.986 282.654  1.00  0.00     0.316 HD
BRANCH  12  14
HETATM   14  C18 UNL     1     175.877 186.245 283.464  1.00  0.00     0.270 C 
BRANCH  14  15
HETATM   15  C19 UNL     1     174.763 185.215 283.702  1.00  0.00     0.034 C 
BRANCH  15  16
HETATM   16  C20 UNL     1     173.936 185.466 284.986  1.00  0.00    -0.010 C 
HETATM   17  C21 UNL     1     173.303 186.868 285.002  1.00  0.00     0.035 C 
HETATM   18  C22 UNL     1     172.519 187.069 286.300  1.00  0.00     0.273 C 
HETATM   19  N3  UNL     1     173.434 186.975 287.459  1.00  0.00     0.093 N 
HETATM   20  C28 UNL     1     174.075 185.641 287.525  1.00  0.00     0.273 C 
HETATM   21  C29 UNL     1     174.839 185.323 286.228  1.00  0.00     0.035 C 
BRANCH  19  22
HETATM   22  C23 UNL     1     172.818 187.345 288.767  1.00  0.00     0.223 C 
HETATM   23  C24 UNL     1     172.723 186.194 289.780  1.00  0.00     0.036 C 
HETATM   24  C25 UNL     1     171.297 185.684 289.698  1.00  0.00     0.002 C 
HETATM   25  C26 UNL     1     170.444 186.867 289.261  1.00  0.00     0.002 C 
HETATM   26  C27 UNL     1     171.385 187.871 288.594  1.00  0.00     0.036 C 
ENDBRANCH  19  22
ENDBRANCH  15  16
ENDBRANCH  14  15
ENDBRANCH  12  14
ENDBRANCH  11  12
ENDBRANCH   7  11
BRANCH   6  27
HETATM   27  S1  UNL     1     172.622 185.715 279.007  1.00  0.00    -0.105 SA
BRANCH  27  28
HETATM   28  C9  UNL     1     173.003 186.587 277.445  1.00  0.00     0.119 C 
BRANCH  28  29
HETATM   29  C10 UNL     1     174.335 186.182 276.864  1.00  0.00    -0.049 A 
HETATM   30  C11 UNL     1     175.519 186.736 277.389  1.00  0.00     0.008 A 
HETATM   31  C12 UNL     1     176.762 186.390 276.852  1.00  0.00     0.001 A 
HETATM   32  C13 UNL     1     176.836 185.484 275.785  1.00  0.00     0.000 A 
HETATM   33  C14 UNL     1     175.666 184.941 275.243  1.00  0.00     0.001 A 
HETATM   34  C15 UNL     1     174.419 185.296 275.772  1.00  0.00     0.008 A 
ENDBRANCH  28  29
ENDBRANCH  27  28
ENDBRANCH   6  27
BRANCH   3  35
HETATM   35  O3  UNL     1     169.373 189.639 279.368  1.00  0.00    -0.351 OA
HETATM   36  C6  UNL     1     169.268 189.958 277.984  1.00  0.00     0.210 C 
ENDBRANCH   3  35
BRANCH   1  37
HETATM   37  O1  UNL     1     171.175 192.883 282.630  1.00  0.00    -0.353 OA
HETATM   38  C1  UNL     1     170.296 193.092 283.736  1.00  0.00     0.210 C 
ENDBRANCH   1  37
BRANCH   2  39
HETATM   39  O2  UNL     1     169.164 192.181 280.705  1.00  0.00    -0.351 OA
HETATM   40  C4  UNL     1     169.083 193.240 279.760  1.00  0.00     0.210 C 
ENDBRANCH   2  39
TORSDOF 12
ENDMDL
MODEL 2
REMARK VINA RESULT:      -7.7      7.857     12.938
REMARK  12 active torsions:
REMARK  status: ('A' for Active; 'I' for Inactive)
REMARK    1  A    between atoms: O1_2  and  C2_3 
REMARK    2  A    between atoms: C3_4  and  O2_5 
REMARK    3  A    between atoms: C5_7  and  O3_8 
REMARK    4  A    between atoms: C8_12  and  S1_13 
REMARK    5  A    between atoms: S1_13  and  C9_14 
REMARK    6  A    between atoms: C9_14  and  C10_15 
REMARK    7  A    between atoms: C16_21  and  C17_22 
REMARK    8  A    between atoms: C17_22  and  N2_23 
REMARK    9  A    between atoms: N2_23  and  C18_24 
REMARK   10  A    between atoms: C18_24  and  C19_25 
REMARK   11  A    between atoms: C19_25  and  C20_26 
REMARK   12  A    between atoms: N3_29  and  C23_30 
ROOT
HETATM    1  C2  UNL     1     175.449 186.243 274.353  1.00  0.00     0.105 A 
HETATM    2  C3  UNL     1     174.091 186.332 274.765  1.00  0.00     0.137 A 
HETATM    3  C5  UNL     1     173.238 187.292 274.153  1.00  0.00     0.134 A 
HETATM    4  C7  UNL     1     173.757 188.166 273.187  1.00  0.00     0.104 A 
HETATM    5  N1  UNL     1     172.953 189.109 272.624  1.00  0.00    -0.238 NA
HETATM    6  C8  UNL     1     173.385 189.950 271.647  1.00  0.00     0.102 A 
HETATM    7  C16 UNL     1     174.713 189.860 271.182  1.00  0.00     0.006 A 
HETATM    8  C30 UNL     1     175.574 188.936 271.792  1.00  0.00     0.025 A 
HETATM    9  C31 UNL     1     175.101 188.079 272.791  1.00  0.00    -0.001 A 
HETATM   10  C32 UNL     1     175.937 187.127 273.373  1.00  0.00     0.053 A 
ENDROOT
BRANCH   7  11
HETATM   11  C17 UNL     1     175.201 190.658 270.000  1.00  0.00     0.311 C 
BRANCH  11  12
HETATM   12  N2  UNL     1     175.380 189.764 268.847  1.00  0.00     0.087 N 
HETATM   13  H19 UNL     1     175.236 188.781 269.170  1.00  0.00     0.316 HD
BRANCH  12  14
HETATM   14  C18 UNL     1     174.415 190.038 267.767  1.00  0.00     0.270 C 
BRANCH  14  15
HETATM   15  C19 UNL     1     173.499 188.826 267.543  1.00  0.00     0.034 C 
BRANCH  15  16
HETATM   16  C20 UNL     1     173.944 187.551 268.299  1.00  0.00    -0.010 C 
HETATM   17  C21 UNL     1     174.189 186.368 267.347  1.00  0.00     0.035 C 
HETATM   18  C22 UNL     1     174.603 185.133 268.148  1.00  0.00     0.273 C 
HETATM   19  N3  UNL     1     173.516 184.747 269.075  1.00  0.00     0.093 N 
HETATM   20  C28 UNL     1     173.230 185.834 270.041  1.00  0.00     0.273 C 
HETATM   21  C29 UNL     1     172.864 187.141 269.320  1.00  0.00     0.035 C 
BRANCH  19  22
HETATM   22  C23 UNL     1     173.728 183.445 269.771  1.00  0.00     0.223 C 
HETATM   23  C24 UNL     1     173.864 183.547 271.298  1.00  0.00     0.036 C 
HETATM   24  C25 UNL     1     175.352 183.496 271.586  1.00  0.00     0.002 C 
HETATM   25  C26 UNL     1     175.981 182.693 270.456  1.00  0.00     0.002 C 
HETATM   26  C27 UNL     1     175.001 182.736 269.282  1.00  0.00     0.036 C 
ENDBRANCH  19  22
ENDBRANCH  15  16
ENDBRANCH  14  15
ENDBRANCH  12  14
ENDBRANCH  11  12
ENDBRANCH   7  11
BRANCH   6  27
HETATM   27  S1  UNL     1     172.255 191.225 271.062  1.00  0.00    -0.105 SA
BRANCH  27  28
HETATM   28  C9  UNL     1     171.819 191.884 272.712  1.00  0.00     0.119 C 
BRANCH  28  29
HETATM   29  C10 UNL     1     172.987 192.545 273.401  1.00  0.00    -0.049 A 
HETATM   30  C11 UNL     1     173.818 193.418 272.674  1.00  0.00     0.008 A 
HETATM   31  C12 UNL     1     174.917 194.026 273.288  1.00  0.00     0.001 A 
HETATM   32  C13 UNL     1     175.197 193.767 274.636  1.00  0.00     0.000 A 
HETATM   33  C14 UNL     1     174.389 192.887 275.365  1.00  0.00     0.001 A 
HETATM   34  C15 UNL     1     173.295 192.268 274.748  1.00  0.00     0.008 A 
ENDBRANCH  28  29
ENDBRANCH  27  28
ENDBRANCH   6  27
BRANCH   3  35
HETATM   35  O3  UNL     1     171.866 187.419 274.445  1.00  0.00    -0.351 OA
HETATM   36  C6  UNL     1     171.284 188.127 275.535  1.00  0.00     0.210 C 
ENDBRANCH   3  35
BRANCH   1  37
HETATM   37  O1  UNL     1     176.284 185.253 274.898  1.00  0.00    -0.353 OA
HETATM   38  C1  UNL     1     177.204 185.456 275.970  1.00  0.00     0.210 C 
ENDBRANCH   1  37
BRANCH   2  39
HETATM   39  O2  UNL     1     173.545 185.466 275.733  1.00  0.00    -0.351 OA
HETATM   40  C4  UNL     1     173.581 185.623 277.146  1.00  0.00     0.210 C 
ENDBRANCH   2  39
TORSDOF 12
ENDMDL
MODEL 3
REMARK VINA RESULT:      -7.4      2.100      5.587
REMARK  12 active torsions:
REMARK  status: ('A' for Active; 'I' for Inactive)
REMARK    1  A    between atoms: O1_2  and  C2_3 
REMARK    2  A    between atoms: C3_4  and  O2_5 
REMARK    3  A    between atoms: C5_7  and  O3_8 
REMARK    4  A    between atoms: C8_12  and  S1_13 
REMARK    5  A    between atoms: S1_13  and  C9_14 
REMARK    6  A    between atoms: C9_14  and  C10_15 
REMARK    7  A    between atoms: C16_21  and  C17_22 
REMARK    8  A    between atoms: C17_22  and  N2_23 
REMARK    9  A    between atoms: N2_23  and  C18_24 
REMARK   10  A    between atoms: C18_24  and  C19_25 
REMARK   11  A    between atoms: C19_25  and  C20_26 
REMARK   12  A    between atoms: N3_29  and  C23_30 
ROOT
HETATM    1  C2  UNL     1     173.789 186.605 276.748  1.00  0.00     0.105 A 
HETATM    2  C3  UNL     1     172.472 187.125 276.876  1.00  0.00     0.137 A 
HETATM    3  C5  UNL     1     171.973 187.452 278.168  1.00  0.00     0.134 A 
HETATM    4  C7  UNL     1     172.767 187.217 279.298  1.00  0.00     0.104 A 
HETATM    5  N1  UNL     1     172.282 187.497 280.539  1.00  0.00    -0.238 NA
HETATM    6  C8  UNL     1     173.022 187.337 281.668  1.00  0.00     0.102 A 
HETATM    7  C16 UNL     1     174.348 186.867 281.576  1.00  0.00     0.006 A 
HETATM    8  C30 UNL     1     174.847 186.516 280.312  1.00  0.00     0.025 A 
HETATM    9  C31 UNL     1     174.064 186.696 279.167  1.00  0.00    -0.001 A 
HETATM   10  C32 UNL     1     174.566 186.391 277.901  1.00  0.00     0.053 A 
ENDROOT
BRANCH   7  11
HETATM   11  C17 UNL     1     175.263 186.818 282.772  1.00  0.00     0.311 C 
BRANCH  11  12
HETATM   12  N2  UNL     1     175.544 185.417 283.116  1.00  0.00     0.087 N 
HETATM   13  H19 UNL     1     176.474 185.377 283.591  1.00  0.00     0.316 HD
BRANCH  12  14
HETATM   14  C18 UNL     1     174.537 184.850 284.032  1.00  0.00     0.270 C 
BRANCH  14  15
HETATM   15  C19 UNL     1     175.145 184.614 285.422  1.00  0.00     0.034 C 
BRANCH  15  16
HETATM   16  C20 UNL     1     174.109 184.619 286.572  1.00  0.00    -0.010 C 
HETATM   17  C21 UNL     1     172.706 185.022 286.086  1.00  0.00     0.035 C 
HETATM   18  C22 UNL     1     171.731 185.033 287.264  1.00  0.00     0.273 C 
HETATM   19  N3  UNL     1     172.165 186.031 288.267  1.00  0.00     0.093 N 
HETATM   20  C28 UNL     1     173.508 185.703 288.799  1.00  0.00     0.273 C 
HETATM   21  C29 UNL     1     174.549 185.607 287.671  1.00  0.00     0.035 C 
BRANCH  19  22
HETATM   22  C23 UNL     1     171.188 186.267 289.369  1.00  0.00     0.223 C 
HETATM   23  C24 UNL     1     170.276 187.487 289.169  1.00  0.00     0.036 C 
HETATM   24  C25 UNL     1     170.884 188.601 289.998  1.00  0.00     0.002 C 
HETATM   25  C26 UNL     1     171.618 187.926 291.149  1.00  0.00     0.002 C 
HETATM   26  C27 UNL     1     171.890 186.484 290.718  1.00  0.00     0.036 C 
ENDBRANCH  19  22
ENDBRANCH  15  16
ENDBRANCH  14  15
ENDBRANCH  12  14
ENDBRANCH  11  12
ENDBRANCH   7  11
BRANCH   6  27
HETATM   27  S1  UNL     1     172.227 187.638 283.256  1.00  0.00    -0.105 SA
BRANCH  27  28
HETATM   28  C9  UNL     1     172.789 189.369 283.440  1.00  0.00     0.119 C 
BRANCH  28  29
HETATM   29  C10 UNL     1     171.936 190.343 282.665  1.00  0.00    -0.049 A 
HETATM   30  C11 UNL     1     172.493 191.040 281.576  1.00  0.00     0.008 A 
HETATM   31  C12 UNL     1     171.726 191.960 280.857  1.00  0.00     0.001 A 
HETATM   32  C13 UNL     1     170.393 192.194 281.219  1.00  0.00     0.000 A 
HETATM   33  C14 UNL     1     169.833 191.521 282.310  1.00  0.00     0.001 A 
HETATM   34  C15 UNL     1     170.604 190.608 283.039  1.00  0.00     0.008 A 
ENDBRANCH  28  29
ENDBRANCH  27  28
ENDBRANCH   6  27
BRANCH   3  35
HETATM   35  O3  UNL     1     170.708 188.029 278.395  1.00  0.00    -0.351 OA
HETATM   36  C6  UNL     1     170.367 189.408 278.303  1.00  0.00     0.210 C 
ENDBRANCH   3  35
BRANCH   1  37
HETATM   37  O1  UNL     1     174.320 186.344 275.474  1.00  0.00    -0.353 OA
HETATM   38  C1  UNL     1     175.263 185.316 275.174  1.00  0.00     0.210 C 
ENDBRANCH   1  37
BRANCH   2  39
HETATM   39  O2  UNL     1     171.654 187.371 275.756  1.00  0.00    -0.351 OA
HETATM   40  C4  UNL     1     171.787 188.423 274.808  1.00  0.00     0.210 C 
ENDBRANCH   2  39
TORSDOF 12
ENDMDL
MODEL 4
REMARK VINA RESULT:      -7.3      2.843      6.366
REMARK  12 active torsions:
REMARK  status: ('A' for Active; 'I' for Inactive)
REMARK    1  A    between atoms: O1_2  and  C2_3 
REMARK    2  A    between atoms: C3_4  and  O2_5 
REMARK    3  A    between atoms: C5_7  and  O3_8 
REMARK    4  A    between atoms: C8_12  and  S1_13 
REMARK    5  A    between atoms: S1_13  and  C9_14 
REMARK    6  A    between atoms: C9_14  and  C10_15 
REMARK    7  A    between atoms: C16_21  and  C17_22 
REMARK    8  A    between atoms: C17_22  and  N2_23 
REMARK    9  A    between atoms: N2_23  and  C18_24 
REMARK   10  A    between atoms: C18_24  and  C19_25 
REMARK   11  A    between atoms: C19_25  and  C20_26 
REMARK   12  A    between atoms: N3_29  and  C23_30 
ROOT
HETATM    1  C2  UNL     1     175.504 185.997 275.477  1.00  0.00     0.105 A 
HETATM    2  C3  UNL     1     174.604 186.607 274.560  1.00  0.00     0.137 A 
HETATM    3  C5  UNL     1     173.359 187.109 275.034  1.00  0.00     0.134 A 
HETATM    4  C7  UNL     1     173.019 186.957 276.385  1.00  0.00     0.104 A 
HETATM    5  N1  UNL     1     171.815 187.405 276.835  1.00  0.00    -0.238 NA
HETATM    6  C8  UNL     1     171.449 187.331 278.142  1.00  0.00     0.102 A 
HETATM    7  C16 UNL     1     172.335 186.775 279.088  1.00  0.00     0.006 A 
HETATM    8  C30 UNL     1     173.556 186.252 278.634  1.00  0.00     0.025 A 
HETATM    9  C31 UNL     1     173.908 186.347 277.283  1.00  0.00    -0.001 A 
HETATM   10  C32 UNL     1     175.138 185.870 276.829  1.00  0.00     0.053 A 
ENDROOT
BRANCH   7  11
HETATM   11  C17 UNL     1     172.049 186.807 280.567  1.00  0.00     0.311 C 
BRANCH  11  12
HETATM   12  N2  UNL     1     172.889 185.814 281.250  1.00  0.00     0.087 N 
HETATM   13  H19 UNL     1     173.633 185.503 280.586  1.00  0.00     0.316 HD
BRANCH  12  14
HETATM   14  C18 UNL     1     173.548 186.363 282.449  1.00  0.00     0.270 C 
BRANCH  14  15
HETATM   15  C19 UNL     1     173.507 185.346 283.600  1.00  0.00     0.034 C 
BRANCH  15  16
HETATM   16  C20 UNL     1     173.902 185.935 284.975  1.00  0.00    -0.010 C 
HETATM   17  C21 UNL     1     174.200 184.838 286.012  1.00  0.00     0.035 C 
HETATM   18  C22 UNL     1     174.561 185.475 287.354  1.00  0.00     0.273 C 
HETATM   19  N3  UNL     1     173.419 186.270 287.857  1.00  0.00     0.093 N 
HETATM   20  C28 UNL     1     173.078 187.365 286.918  1.00  0.00     0.273 C 
HETATM   21  C29 UNL     1     172.760 186.820 285.515  1.00  0.00     0.035 C 
BRANCH  19  22
HETATM   22  C23 UNL     1     173.584 186.782 289.248  1.00  0.00     0.223 C 
HETATM   23  C24 UNL     1     173.897 185.702 290.296  1.00  0.00     0.036 C 
HETATM   24  C25 UNL     1     172.581 185.396 290.984  1.00  0.00     0.002 C 
HETATM   25  C26 UNL     1     171.747 186.667 290.898  1.00  0.00     0.002 C 
HETATM   26  C27 UNL     1     172.319 187.497 289.748  1.00  0.00     0.036 C 
ENDBRANCH  19  22
ENDBRANCH  15  16
ENDBRANCH  14  15
ENDBRANCH  12  14
ENDBRANCH  11  12
ENDBRANCH   7  11
BRANCH   6  27
HETATM   27  S1  UNL     1     169.787 187.859 278.592  1.00  0.00    -0.105 SA
BRANCH  27  28
HETATM   28  C9  UNL     1     169.977 189.601 278.065  1.00  0.00     0.119 C 
BRANCH  28  29
HETATM   29  C10 UNL     1     170.127 190.547 279.230  1.00  0.00    -0.049 A 
HETATM   30  C11 UNL     1     169.638 191.863 279.123  1.00  0.00     0.008 A 
HETATM   31  C12 UNL     1     169.784 192.761 280.183  1.00  0.00     0.001 A 
HETATM   32  C13 UNL     1     170.421 192.354 281.364  1.00  0.00     0.000 A 
HETATM   33  C14 UNL     1     170.928 191.054 281.475  1.00  0.00     0.001 A 
HETATM   34  C15 UNL     1     170.792 190.157 280.409  1.00  0.00     0.008 A 
ENDBRANCH  28  29
ENDBRANCH  27  28
ENDBRANCH   6  27
BRANCH   3  35
HETATM   35  O3  UNL     1     172.427 187.783 274.221  1.00  0.00    -0.351 OA
HETATM   36  C6  UNL     1     171.395 187.197 273.434  1.00  0.00     0.210 C 
ENDBRANCH   3  35
BRANCH   1  37
HETATM   37  O1  UNL     1     176.764 185.561 275.037  1.00  0.00    -0.353 OA
HETATM   38  C1  UNL     1     178.015 186.052 275.518  1.00  0.00     0.210 C 
ENDBRANCH   1  37
BRANCH   2  39
HETATM   39  O2  UNL     1     174.922 186.772 273.198  1.00  0.00    -0.351 OA
HETATM   40  C4  UNL     1     175.622 187.859 272.604  1.00  0.00     0.210 C 
ENDBRANCH   2  39
TORSDOF 12
ENDMDL
MODEL 5
REMARK VINA RESULT:      -7.1      9.966     15.469
REMARK  12 active torsions:
REMARK  status: ('A' for Active; 'I' for Inactive)
REMARK    1  A    between atoms: O1_2  and  C2_3 
REMARK    2  A    between atoms: C3_4  and  O2_5 
REMARK    3  A    between atoms: C5_7  and  O3_8 
REMARK    4  A    between atoms: C8_12  and  S1_13 
REMARK    5  A    between atoms: S1_13  and  C9_14 
REMARK    6  A    between atoms: C9_14  and  C10_15 
REMARK    7  A    between atoms: C16_21  and  C17_22 
REMARK    8  A    between atoms: C17_22  and  N2_23 
REMARK    9  A    between atoms: N2_23  and  C18_24 
REMARK   10  A    between atoms: C18_24  and  C19_25 
REMARK   11  A    between atoms: C19_25  and  C20_26 
REMARK   12  A    between atoms: N3_29  and  C23_30 
ROOT
HETATM    1  C2  UNL     1     174.971 184.560 266.076  1.00  0.00     0.105 A 
HETATM    2  C3  UNL     1     175.068 183.585 267.107  1.00  0.00     0.137 A 
HETATM    3  C5  UNL     1     175.065 184.005 268.467  1.00  0.00     0.134 A 
HETATM    4  C7  UNL     1     175.011 185.371 268.771  1.00  0.00     0.104 A 
HETATM    5  N1  UNL     1     175.042 185.779 270.069  1.00  0.00    -0.238 NA
HETATM    6  C8  UNL     1     174.942 187.086 270.428  1.00  0.00     0.102 A 
HETATM    7  C16 UNL     1     174.798 188.077 269.435  1.00  0.00     0.006 A 
HETATM    8  C30 UNL     1     174.825 187.683 268.089  1.00  0.00     0.025 A 
HETATM    9  C31 UNL     1     174.923 186.330 267.749  1.00  0.00    -0.001 A 
HETATM   10  C32 UNL     1     174.906 185.924 266.414  1.00  0.00     0.053 A 
ENDROOT
BRANCH   7  11
HETATM   11  C17 UNL     1     174.529 189.520 269.779  1.00  0.00     0.311 C 
BRANCH  11  12
HETATM   12  N2  UNL     1     174.028 190.221 268.589  1.00  0.00     0.087 N 
HETATM   13  H19 UNL     1     174.290 189.662 267.745  1.00  0.00     0.316 HD
BRANCH  12  14
HETATM   14  C18 UNL     1     172.562 190.371 268.600  1.00  0.00     0.270 C 
BRANCH  14  15
HETATM   15  C19 UNL     1     171.964 189.929 267.256  1.00  0.00     0.034 C 
BRANCH  15  16
HETATM   16  C20 UNL     1     171.148 188.616 267.331  1.00  0.00    -0.010 C 
HETATM   17  C21 UNL     1     171.214 187.971 268.727  1.00  0.00     0.035 C 
HETATM   18  C22 UNL     1     170.412 186.670 268.736  1.00  0.00     0.273 C 
HETATM   19  N3  UNL     1     170.995 185.712 267.770  1.00  0.00     0.093 N 
HETATM   20  C28 UNL     1     170.953 186.255 266.392  1.00  0.00     0.273 C 
HETATM   21  C29 UNL     1     171.685 187.604 266.299  1.00  0.00     0.035 C 
BRANCH  19  22
HETATM   22  C23 UNL     1     170.414 184.340 267.830  1.00  0.00     0.223 C 
HETATM   23  C24 UNL     1     169.959 183.896 269.229  1.00  0.00     0.036 C 
HETATM   24  C25 UNL     1     171.074 183.023 269.771  1.00  0.00     0.002 C 
HETATM   25  C26 UNL     1     171.754 182.396 268.561  1.00  0.00     0.002 C 
HETATM   26  C27 UNL     1     171.415 183.275 267.356  1.00  0.00     0.036 C 
ENDBRANCH  19  22
ENDBRANCH  15  16
ENDBRANCH  14  15
ENDBRANCH  12  14
ENDBRANCH  11  12
ENDBRANCH   7  11
BRANCH   6  27
HETATM   27  S1  UNL     1     175.107 187.504 272.173  1.00  0.00    -0.105 SA
BRANCH  27  28
HETATM   28  C9  UNL     1     176.562 186.444 272.499  1.00  0.00     0.119 C 
BRANCH  28  29
HETATM   29  C10 UNL     1     176.670 186.037 273.948  1.00  0.00    -0.049 A 
HETATM   30  C11 UNL     1     177.854 186.309 274.659  1.00  0.00     0.008 A 
HETATM   31  C12 UNL     1     177.982 185.923 275.996  1.00  0.00     0.001 A 
HETATM   32  C13 UNL     1     176.927 185.261 276.638  1.00  0.00     0.000 A 
HETATM   33  C14 UNL     1     175.752 184.969 275.937  1.00  0.00     0.001 A 
HETATM   34  C15 UNL     1     175.627 185.344 274.594  1.00  0.00     0.008 A 
ENDBRANCH  28  29
ENDBRANCH  27  28
ENDBRANCH   6  27
BRANCH   3  35
HETATM   35  O3  UNL     1     175.095 183.116 269.560  1.00  0.00    -0.351 OA
HETATM   36  C6  UNL     1     176.247 182.513 270.142  1.00  0.00     0.210 C 
ENDBRANCH   3  35
BRANCH   1  37
HETATM   37  O1  UNL     1     174.902 184.156 264.733  1.00  0.00    -0.353 OA
HETATM   38  C1  UNL     1     175.996 184.164 263.817  1.00  0.00     0.210 C 
ENDBRANCH   1  37
BRANCH   2  39
HETATM   39  O2  UNL     1     175.123 182.205 266.828  1.00  0.00    -0.351 OA
HETATM   40  C4  UNL     1     176.280 181.434 266.529  1.00  0.00     0.210 C 
ENDBRANCH   2  39
TORSDOF 12
ENDMDL
MODEL 6
REMARK VINA RESULT:      -7.0      9.268     14.007
REMARK  12 active torsions:
REMARK  status: ('A' for Active; 'I' for Inactive)
REMARK    1  A    between atoms: O1_2  and  C2_3 
REMARK    2  A    between atoms: C3_4  and  O2_5 
REMARK    3  A    between atoms: C5_7  and  O3_8 
REMARK    4  A    between atoms: C8_12  and  S1_13 
REMARK    5  A    between atoms: S1_13  and  C9_14 
REMARK    6  A    between atoms: C9_14  and  C10_15 
REMARK    7  A    between atoms: C16_21  and  C17_22 
REMARK    8  A    between atoms: C17_22  and  N2_23 
REMARK    9  A    between atoms: N2_23  and  C18_24 
REMARK   10  A    between atoms: C18_24  and  C19_25 
REMARK   11  A    between atoms: C19_25  and  C20_26 
REMARK   12  A    between atoms: N3_29  and  C23_30 
ROOT
HETATM    1  C2  UNL     1     174.740 189.093 268.732  1.00  0.00     0.105 A 
HETATM    2  C3  UNL     1     173.577 189.474 268.009  1.00  0.00     0.137 A 
HETATM    3  C5  UNL     1     172.926 188.517 267.181  1.00  0.00     0.134 A 
HETATM    4  C7  UNL     1     173.463 187.229 267.055  1.00  0.00     0.104 A 
HETATM    5  N1  UNL     1     172.863 186.321 266.238  1.00  0.00    -0.238 NA
HETATM    6  C8  UNL     1     173.308 185.042 266.113  1.00  0.00     0.102 A 
HETATM    7  C16 UNL     1     174.432 184.616 266.850  1.00  0.00     0.006 A 
HETATM    8  C30 UNL     1     175.101 185.554 267.652  1.00  0.00     0.025 A 
HETATM    9  C31 UNL     1     174.617 186.862 267.765  1.00  0.00    -0.001 A 
HETATM   10  C32 UNL     1     175.249 187.789 268.593  1.00  0.00     0.053 A 
ENDROOT
BRANCH   7  11
HETATM   11  C17 UNL     1     174.875 183.176 266.870  1.00  0.00     0.311 C 
BRANCH  11  12
HETATM   12  N2  UNL     1     174.183 182.466 267.955  1.00  0.00     0.087 N 
HETATM   13  H19 UNL     1     174.195 181.444 267.737  1.00  0.00     0.316 HD
BRANCH  12  14
HETATM   14  C18 UNL     1     174.834 182.662 269.262  1.00  0.00     0.270 C 
BRANCH  14  15
HETATM   15  C19 UNL     1     173.851 183.279 270.268  1.00  0.00     0.034 C 
BRANCH  15  16
HETATM   16  C20 UNL     1     174.423 184.487 271.049  1.00  0.00    -0.010 C 
HETATM   17  C21 UNL     1     175.954 184.419 271.181  1.00  0.00     0.035 C 
HETATM   18  C22 UNL     1     176.461 185.621 271.978  1.00  0.00     0.273 C 
HETATM   19  N3  UNL     1     175.890 185.596 273.344  1.00  0.00     0.093 N 
HETATM   20  C28 UNL     1     174.411 185.675 273.303  1.00  0.00     0.273 C 
HETATM   21  C29 UNL     1     173.812 184.535 272.464  1.00  0.00     0.035 C 
BRANCH  19  22
HETATM   22  C23 UNL     1     176.462 186.612 274.274  1.00  0.00     0.223 C 
HETATM   23  C24 UNL     1     177.885 186.302 274.766  1.00  0.00     0.036 C 
HETATM   24  C25 UNL     1     177.724 185.700 276.149  1.00  0.00     0.002 C 
HETATM   25  C26 UNL     1     176.440 186.284 276.723  1.00  0.00     0.002 C 
HETATM   26  C27 UNL     1     175.606 186.774 275.539  1.00  0.00     0.036 C 
ENDBRANCH  19  22
ENDBRANCH  15  16
ENDBRANCH  14  15
ENDBRANCH  12  14
ENDBRANCH  11  12
ENDBRANCH   7  11
BRANCH   6  27
HETATM   27  S1  UNL     1     172.493 183.971 264.916  1.00  0.00    -0.105 SA
BRANCH  27  28
HETATM   28  C9  UNL     1     173.341 184.634 263.438  1.00  0.00     0.119 C 
BRANCH  28  29
HETATM   29  C10 UNL     1     174.645 183.931 263.151  1.00  0.00    -0.049 A 
HETATM   30  C11 UNL     1     174.627 182.643 262.582  1.00  0.00     0.008 A 
HETATM   31  C12 UNL     1     175.823 181.965 262.327  1.00  0.00     0.001 A 
HETATM   32  C13 UNL     1     177.049 182.568 262.637  1.00  0.00     0.000 A 
HETATM   33  C14 UNL     1     177.079 183.840 263.220  1.00  0.00     0.001 A 
HETATM   34  C15 UNL     1     175.882 184.515 263.487  1.00  0.00     0.008 A 
ENDBRANCH  28  29
ENDBRANCH  27  28
ENDBRANCH   6  27
BRANCH   3  35
HETATM   35  O3  UNL     1     171.735 188.775 266.474  1.00  0.00    -0.351 OA
HETATM   36  C6  UNL     1     170.404 188.675 266.971  1.00  0.00     0.210 C 
ENDBRANCH   3  35
BRANCH   1  37
HETATM   37  O1  UNL     1     175.352 190.006 269.607  1.00  0.00    -0.353 OA
HETATM   38  C1  UNL     1     175.647 189.753 270.981  1.00  0.00     0.210 C 
ENDBRANCH   1  37
BRANCH   2  39
HETATM   39  O2  UNL     1     173.016 190.762 268.119  1.00  0.00    -0.351 OA
HETATM   40  C4  UNL     1     172.085 191.214 269.094  1.00  0.00     0.210 C 
ENDBRANCH   2  39
TORSDOF 12
ENDMDL
MODEL 7
REMARK VINA RESULT:      -7.0      2.591      5.820
REMARK  12 active torsions:
REMARK  status: ('A' for Active; 'I' for Inactive)
REMARK    1  A    between atoms: O1_2  and  C2_3 
REMARK    2  A    between atoms: C3_4  and  O2_5 
REMARK    3  A    between atoms: C5_7  and  O3_8 
REMARK    4  A    between atoms: C8_12  and  S1_13 
REMARK    5  A    between atoms: S1_13  and  C9_14 
REMARK    6  A    between atoms: C9_14  and  C10_15 
REMARK    7  A    between atoms: C16_21  and  C17_22 
REMARK    8  A    between atoms: C17_22  and  N2_23 
REMARK    9  A    between atoms: N2_23  and  C18_24 
REMARK   10  A    between atoms: C18_24  and  C19_25 
REMARK   11  A    between atoms: C19_25  and  C20_26 
REMARK   12  A    between atoms: N3_29  and  C23_30 
ROOT
HETATM    1  C2  UNL     1     169.903 187.560 276.846  1.00  0.00     0.105 A 
HETATM    2  C3  UNL     1     169.492 188.869 277.220  1.00  0.00     0.137 A 
HETATM    3  C5  UNL     1     170.004 189.447 278.415  1.00  0.00     0.134 A 
HETATM    4  C7  UNL     1     170.869 188.704 279.230  1.00  0.00     0.104 A 
HETATM    5  N1  UNL     1     171.334 189.240 280.391  1.00  0.00    -0.238 NA
HETATM    6  C8  UNL     1     172.213 188.588 281.197  1.00  0.00     0.102 A 
HETATM    7  C16 UNL     1     172.678 187.307 280.836  1.00  0.00     0.006 A 
HETATM    8  C30 UNL     1     172.165 186.713 279.673  1.00  0.00     0.025 A 
HETATM    9  C31 UNL     1     171.264 187.409 278.860  1.00  0.00    -0.001 A 
HETATM   10  C32 UNL     1     170.782 186.844 277.680  1.00  0.00     0.053 A 
ENDROOT
BRANCH   7  11
HETATM   11  C17 UNL     1     173.767 186.605 281.607  1.00  0.00     0.311 C 
BRANCH  11  12
HETATM   12  N2  UNL     1     173.396 185.197 281.804  1.00  0.00     0.087 N 
HETATM   13  H19 UNL     1     174.157 184.600 281.409  1.00  0.00     0.316 HD
BRANCH  12  14
HETATM   14  C18 UNL     1     173.236 184.851 283.228  1.00  0.00     0.270 C 
BRANCH  14  15
HETATM   15  C19 UNL     1     174.602 184.806 283.929  1.00  0.00     0.034 C 
BRANCH  15  16
HETATM   16  C20 UNL     1     174.655 185.600 285.257  1.00  0.00    -0.010 C 
HETATM   17  C21 UNL     1     175.175 184.743 286.424  1.00  0.00     0.035 C 
HETATM   18  C22 UNL     1     175.184 185.569 287.711  1.00  0.00     0.273 C 
HETATM   19  N3  UNL     1     173.806 185.996 288.044  1.00  0.00     0.093 N 
HETATM   20  C28 UNL     1     173.238 186.844 286.971  1.00  0.00     0.273 C 
HETATM   21  C29 UNL     1     173.247 186.115 285.617  1.00  0.00     0.035 C 
BRANCH  19  22
HETATM   22  C23 UNL     1     173.665 186.644 289.380  1.00  0.00     0.223 C 
HETATM   23  C24 UNL     1     173.611 185.667 290.565  1.00  0.00     0.036 C 
HETATM   24  C25 UNL     1     172.143 185.521 290.917  1.00  0.00     0.002 C 
HETATM   25  C26 UNL     1     171.473 186.826 290.507  1.00  0.00     0.002 C 
HETATM   26  C27 UNL     1     172.384 187.488 289.473  1.00  0.00     0.036 C 
ENDBRANCH  19  22
ENDBRANCH  15  16
ENDBRANCH  14  15
ENDBRANCH  12  14
ENDBRANCH  11  12
ENDBRANCH   7  11
BRANCH   6  27
HETATM   27  S1  UNL     1     172.667 189.359 282.761  1.00  0.00    -0.105 SA
BRANCH  27  28
HETATM   28  C9  UNL     1     172.216 191.067 282.283  1.00  0.00     0.119 C 
BRANCH  28  29
HETATM   29  C10 UNL     1     171.002 191.575 283.020  1.00  0.00    -0.049 A 
HETATM   30  C11 UNL     1     170.795 192.962 283.145  1.00  0.00     0.008 A 
HETATM   31  C12 UNL     1     169.687 193.453 283.841  1.00  0.00     0.001 A 
HETATM   32  C13 UNL     1     168.772 192.563 284.419  1.00  0.00     0.000 A 
HETATM   33  C14 UNL     1     168.976 191.182 284.317  1.00  0.00     0.001 A 
HETATM   34  C15 UNL     1     170.092 190.689 283.631  1.00  0.00     0.008 A 
ENDBRANCH  28  29
ENDBRANCH  27  28
ENDBRANCH   6  27
BRANCH   3  35
HETATM   35  O3  UNL     1     169.708 190.758 278.840  1.00  0.00    -0.351 OA
HETATM   36  C6  UNL     1     170.426 191.945 278.519  1.00  0.00     0.210 C 
ENDBRANCH   3  35
BRANCH   1  37
HETATM   37  O1  UNL     1     169.462 187.006 275.634  1.00  0.00    -0.353 OA
HETATM   38  C1  UNL     1     170.097 187.190 274.369  1.00  0.00     0.210 C 
ENDBRANCH   1  37
BRANCH   2  39
HETATM   39  O2  UNL     1     168.624 189.638 276.418  1.00  0.00    -0.351 OA
HETATM   40  C4  UNL     1     168.987 190.577 275.414  1.00  0.00     0.210 C 
ENDBRANCH   2  39
TORSDOF 12
ENDMDL
MODEL 8
REMARK VINA RESULT:      -7.0      7.322     12.497
REMARK  12 active torsions:
REMARK  status: ('A' for Active; 'I' for Inactive)
REMARK    1  A    between atoms: O1_2  and  C2_3 
REMARK    2  A    between atoms: C3_4  and  O2_5 
REMARK    3  A    between atoms: C5_7  and  O3_8 
REMARK    4  A    between atoms: C8_12  and  S1_13 
REMARK    5  A    between atoms: S1_13  and  C9_14 
REMARK    6  A    between atoms: C9_14  and  C10_15 
REMARK    7  A    between atoms: C16_21  and  C17_22 
REMARK    8  A    between atoms: C17_22  and  N2_23 
REMARK    9  A    between atoms: N2_23  and  C18_24 
REMARK   10  A    between atoms: C18_24  and  C19_25 
REMARK   11  A    between atoms: C19_25  and  C20_26 
REMARK   12  A    between atoms: N3_29  and  C23_30 
ROOT
HETATM    1  C2  UNL     1     176.492 186.335 275.335  1.00  0.00     0.105 A 
HETATM    2  C3  UNL     1     175.182 186.676 275.772  1.00  0.00     0.137 A 
HETATM    3  C5  UNL     1     174.064 186.326 274.965  1.00  0.00     0.134 A 
HETATM    4  C7  UNL     1     174.269 185.690 273.733  1.00  0.00     0.104 A 
HETATM    5  N1  UNL     1     173.205 185.383 272.942  1.00  0.00    -0.238 NA
HETATM    6  C8  UNL     1     173.336 184.724 271.761  1.00  0.00     0.102 A 
HETATM    7  C16 UNL     1     174.615 184.329 271.318  1.00  0.00     0.006 A 
HETATM    8  C30 UNL     1     175.731 184.689 272.089  1.00  0.00     0.025 A 
HETATM    9  C31 UNL     1     175.565 185.363 273.303  1.00  0.00    -0.001 A 
HETATM   10  C32 UNL     1     176.664 185.687 274.098  1.00  0.00     0.053 A 
ENDROOT
BRANCH   7  11
HETATM   11  C17 UNL     1     174.806 183.463 270.099  1.00  0.00     0.311 C 
BRANCH  11  12
HETATM   12  N2  UNL     1     175.539 184.217 269.073  1.00  0.00     0.087 N 
HETATM   13  H19 UNL     1     175.899 183.540 268.363  1.00  0.00     0.316 HD
BRANCH  12  14
HETATM   14  C18 UNL     1     174.685 185.197 268.378  1.00  0.00     0.270 C 
BRANCH  14  15
HETATM   15  C19 UNL     1     175.398 186.553 268.269  1.00  0.00     0.034 C 
BRANCH  15  16
HETATM   16  C20 UNL     1     174.664 187.710 268.988  1.00  0.00    -0.010 C 
HETATM   17  C21 UNL     1     175.040 189.085 268.407  1.00  0.00     0.035 C 
HETATM   18  C22 UNL     1     174.306 190.189 269.168  1.00  0.00     0.273 C 
HETATM   19  N3  UNL     1     174.713 190.175 270.591  1.00  0.00     0.093 N 
HETATM   20  C28 UNL     1     174.369 188.884 271.231  1.00  0.00     0.273 C 
HETATM   21  C29 UNL     1     175.016 187.702 270.490  1.00  0.00     0.035 C 
BRANCH  19  22
HETATM   22  C23 UNL     1     174.209 191.329 271.391  1.00  0.00     0.223 C 
HETATM   23  C24 UNL     1     173.555 190.946 272.728  1.00  0.00     0.036 C 
HETATM   24  C25 UNL     1     172.059 190.968 272.480  1.00  0.00     0.002 C 
HETATM   25  C26 UNL     1     171.824 191.979 271.366  1.00  0.00     0.002 C 
HETATM   26  C27 UNL     1     173.152 192.138 270.624  1.00  0.00     0.036 C 
ENDBRANCH  19  22
ENDBRANCH  15  16
ENDBRANCH  14  15
ENDBRANCH  12  14
ENDBRANCH  11  12
ENDBRANCH   7  11
BRANCH   6  27
HETATM   27  S1  UNL     1     171.862 184.475 270.757  1.00  0.00    -0.105 SA
BRANCH  27  28
HETATM   28  C9  UNL     1     171.114 186.112 271.084  1.00  0.00     0.119 C 
BRANCH  28  29
HETATM   29  C10 UNL     1     171.109 187.002 269.867  1.00  0.00    -0.049 A 
HETATM   30  C11 UNL     1     171.275 186.433 268.590  1.00  0.00     0.008 A 
HETATM   31  C12 UNL     1     171.293 187.242 267.450  1.00  0.00     0.001 A 
HETATM   32  C13 UNL     1     171.146 188.630 267.575  1.00  0.00     0.000 A 
HETATM   33  C14 UNL     1     170.998 189.210 268.840  1.00  0.00     0.001 A 
HETATM   34  C15 UNL     1     170.992 188.402 269.983  1.00  0.00     0.008 A 
ENDBRANCH  28  29
ENDBRANCH  27  28
ENDBRANCH   6  27
BRANCH   3  35
HETATM   35  O3  UNL     1     172.726 186.563 275.337  1.00  0.00    -0.351 OA
HETATM   36  C6  UNL     1     172.039 187.811 275.314  1.00  0.00     0.210 C 
ENDBRANCH   3  35
BRANCH   1  37
HETATM   37  O1  UNL     1     177.599 186.612 276.154  1.00  0.00    -0.353 OA
HETATM   38  C1  UNL     1     178.239 185.668 277.013  1.00  0.00     0.210 C 
ENDBRANCH   1  37
BRANCH   2  39
HETATM   39  O2  UNL     1     174.949 187.314 277.006  1.00  0.00    -0.351 OA
HETATM   40  C4  UNL     1     174.646 186.696 278.250  1.00  0.00     0.210 C 
ENDBRANCH   2  39
TORSDOF 12
ENDMDL
MODEL 9
REMARK VINA RESULT:      -6.9      3.392      9.767
REMARK  12 active torsions:
REMARK  status: ('A' for Active; 'I' for Inactive)
REMARK    1  A    between atoms: O1_2  and  C2_3 
REMARK    2  A    between atoms: C3_4  and  O2_5 
REMARK    3  A    between atoms: C5_7  and  O3_8 
REMARK    4  A    between atoms: C8_12  and  S1_13 
REMARK    5  A    between atoms: S1_13  and  C9_14 
REMARK    6  A    between atoms: C9_14  and  C10_15 
REMARK    7  A    between atoms: C16_21  and  C17_22 
REMARK    8  A    between atoms: C17_22  and  N2_23 
REMARK    9  A    between atoms: N2_23  and  C18_24 
REMARK   10  A    between atoms: C18_24  and  C19_25 
REMARK   11  A    between atoms: C19_25  and  C20_26 
REMARK   12  A    between atoms: N3_29  and  C23_30 
ROOT
HETATM    1  C2  UNL     1     171.288 189.988 282.183  1.00  0.00     0.105 A 
HETATM    2  C3  UNL     1     172.239 188.963 282.442  1.00  0.00     0.137 A 
HETATM    3  C5  UNL     1     172.601 188.067 281.397  1.00  0.00     0.134 A 
HETATM    4  C7  UNL     1     171.984 188.178 280.144  1.00  0.00     0.104 A 
HETATM    5  N1  UNL     1     172.302 187.302 279.152  1.00  0.00    -0.238 NA
HETATM    6  C8  UNL     1     171.775 187.389 277.902  1.00  0.00     0.102 A 
HETATM    7  C16 UNL     1     170.863 188.420 277.596  1.00  0.00     0.006 A 
HETATM    8  C30 UNL     1     170.477 189.297 278.621  1.00  0.00     0.025 A 
HETATM    9  C31 UNL     1     171.039 189.186 279.897  1.00  0.00    -0.001 A 
HETATM   10  C32 UNL     1     170.695 190.080 280.911  1.00  0.00     0.053 A 
ENDROOT
BRANCH   7  11
HETATM   11  C17 UNL     1     170.368 188.658 276.192  1.00  0.00     0.311 C 
BRANCH  11  12
HETATM   12  N2  UNL     1     171.219 189.661 275.537  1.00  0.00     0.087 N 
HETATM   13  H19 UNL     1     172.069 189.804 276.127  1.00  0.00     0.316 HD
BRANCH  12  14
HETATM   14  C18 UNL     1     171.658 189.237 274.196  1.00  0.00     0.270 C 
BRANCH  14  15
HETATM   15  C19 UNL     1     173.191 189.183 274.122  1.00  0.00     0.034 C 
BRANCH  15  16
HETATM   16  C20 UNL     1     173.743 187.936 273.391  1.00  0.00    -0.010 C 
HETATM   17  C21 UNL     1     174.515 188.307 272.113  1.00  0.00     0.035 C 
HETATM   18  C22 UNL     1     175.016 187.039 271.421  1.00  0.00     0.273 C 
HETATM   19  N3  UNL     1     173.867 186.195 271.024  1.00  0.00     0.093 N 
HETATM   20  C28 UNL     1     173.078 185.779 272.207  1.00  0.00     0.273 C 
HETATM   21  C29 UNL     1     172.583 186.996 273.006  1.00  0.00     0.035 C 
BRANCH  19  22
HETATM   22  C23 UNL     1     174.223 185.024 270.171  1.00  0.00     0.223 C 
HETATM   23  C24 UNL     1     173.761 183.666 270.720  1.00  0.00     0.036 C 
HETATM   24  C25 UNL     1     174.977 183.052 271.387  1.00  0.00     0.002 C 
HETATM   25  C26 UNL     1     176.193 183.614 270.663  1.00  0.00     0.002 C 
HETATM   26  C27 UNL     1     175.742 184.903 269.974  1.00  0.00     0.036 C 
ENDBRANCH  19  22
ENDBRANCH  15  16
ENDBRANCH  14  15
ENDBRANCH  12  14
ENDBRANCH  11  12
ENDBRANCH   7  11
BRANCH   6  27
HETATM   27  S1  UNL     1     172.193 186.103 276.711  1.00  0.00    -0.105 SA
BRANCH  27  28
HETATM   28  C9  UNL     1     173.840 185.711 277.404  1.00  0.00     0.119 C 
BRANCH  28  29
HETATM   29  C10 UNL     1     174.950 185.880 276.396  1.00  0.00    -0.049 A 
HETATM   30  C11 UNL     1     174.970 185.071 275.244  1.00  0.00     0.008 A 
HETATM   31  C12 UNL     1     175.999 185.197 274.307  1.00  0.00     0.001 A 
HETATM   32  C13 UNL     1     177.020 186.136 274.511  1.00  0.00     0.000 A 
HETATM   33  C14 UNL     1     177.021 186.934 275.660  1.00  0.00     0.001 A 
HETATM   34  C15 UNL     1     175.997 186.800 276.605  1.00  0.00     0.008 A 
ENDBRANCH  28  29
ENDBRANCH  27  28
ENDBRANCH   6  27
BRANCH   3  35
HETATM   35  O3  UNL     1     173.576 187.060 281.533  1.00  0.00    -0.351 OA
HETATM   36  C6  UNL     1     174.978 187.191 281.320  1.00  0.00     0.210 C 
ENDBRANCH   3  35
BRANCH   1  37
HETATM   37  O1  UNL     1     170.974 190.923 283.183  1.00  0.00    -0.353 OA
HETATM   38  C1  UNL     1     169.653 191.321 283.548  1.00  0.00     0.210 C 
ENDBRANCH   1  37
BRANCH   2  39
HETATM   39  O2  UNL     1     172.874 188.831 283.693  1.00  0.00    -0.351 OA
HETATM   40  C4  UNL     1     172.562 187.899 284.721  1.00  0.00     0.210 C 
ENDBRANCH   2  39
TORSDOF 12
ENDMDL
