MODEL 1
REMARK VINA RESULT:      -7.6      0.000      0.000
REMARK  9 active torsions:
REMARK  status: ('A' for Active; 'I' for Inactive)
REMARK    1  A    between atoms: C_4  and  S_20 
REMARK    2  A    between atoms: C_5  and  C_7 
REMARK    3  A    between atoms: C_7  and  N_8 
REMARK    4  A    between atoms: N_8  and  C_9 
REMARK    5  A    between atoms: C_9  and  C_10 
REMARK    6  A    between atoms: C_10  and  C_11 
REMARK    7  A    between atoms: N_14  and  C_17 
REMARK    8  A    between atoms: S_20  and  C_27 
REMARK    9  A    between atoms: C_21  and  C_27 
ROOT
HETATM    1  C           1     172.711 189.457 282.384  0.00  0.00     0.029 A 
HETATM    2  C           1     173.537 189.242 283.477  0.00  0.00     0.137 A 
HETATM    3  N           1     174.456 188.253 283.540  0.00  0.00    -0.252 NA
HETATM    4  C           1     174.552 187.446 282.461  0.00  0.00     0.101 A 
HETATM    5  C           1     173.772 187.583 281.324  0.00  0.00     0.006 A 
HETATM    6  C           1     172.834 188.609 281.289  0.00  0.00     0.032 A 
HETATM    7 Br           1     171.459 190.861 282.384  0.00  0.00    -0.050 Br
ENDROOT
BRANCH   5   8
HETATM    8  C           1     173.933 186.650 280.165  0.00  0.00     0.308 C 
BRANCH   8   9
HETATM    9  N           1     172.666 186.041 279.858  0.00  0.00     0.087 N 
HETATM   10  H           1     172.501 185.262 280.495  0.00  0.00     0.316 HD
BRANCH   9  11
HETATM   11  C           1     172.731 185.550 278.508  0.00  0.00     0.270 C 
BRANCH  11  12
HETATM   12  C           1     172.758 186.726 277.541  0.00  0.00     0.034 C 
BRANCH  12  13
HETATM   13  C           1     174.116 186.790 276.856  0.00  0.00    -0.010 C 
HETATM   14  C           1     174.548 185.379 276.466  0.00  0.00     0.035 C 
HETATM   15  C           1     175.810 185.404 275.606  0.00  0.00     0.272 C 
HETATM   16  N           1     175.633 186.246 274.422  0.00  0.00     0.088 N 
HETATM   17  C           1     175.294 187.621 274.789  0.00  0.00     0.272 C 
HETATM   18  C           1     174.013 187.678 275.620  0.00  0.00     0.035 C 
BRANCH  16  19
HETATM   19  C           1     176.909 186.273 273.760  0.00  0.00     0.268 C 
HETATM   20  C           1     178.020 186.350 274.799  0.00  0.00     0.037 C 
ENDBRANCH  16  19
ENDBRANCH  12  13
ENDBRANCH  11  12
ENDBRANCH   9  11
ENDBRANCH   8   9
ENDBRANCH   5   8
BRANCH   4  21
HETATM   21  S           1     175.774 186.104 282.503  0.00  0.00    -0.105 SA
BRANCH  21  22
HETATM   22  C           1     174.528 184.806 282.746  0.00  0.00     0.122 C 
BRANCH  22  23
HETATM   23  C           1     174.029 184.851 284.157  0.00  0.00    -0.049 A 
HETATM   24  C           1     174.901 184.591 285.213  0.00  0.00     0.008 A 
HETATM   25  C           1     174.435 184.632 286.527  0.00  0.00     0.001 A 
HETATM   26  C           1     173.098 184.934 286.785  0.00  0.00     0.000 A 
HETATM   27  C           1     172.226 185.194 285.727  0.00  0.00     0.001 A 
HETATM   28  C           1     172.692 185.152 284.413  0.00  0.00     0.008 A 
ENDBRANCH  22  23
ENDBRANCH  21  22
ENDBRANCH   4  21
TORSDOF 9
ENDMDL
MODEL 2
REMARK VINA RESULT:      -7.6      2.212      8.326
REMARK  9 active torsions:
REMARK  status: ('A' for Active; 'I' for Inactive)
REMARK    1  A    between atoms: C_4  and  S_20 
REMARK    2  A    between atoms: C_5  and  C_7 
REMARK    3  A    between atoms: C_7  and  N_8 
REMARK    4  A    between atoms: N_8  and  C_9 
REMARK    5  A    between atoms: C_9  and  C_10 
REMARK    6  A    between atoms: C_10  and  C_11 
REMARK    7  A    between atoms: N_14  and  C_17 
REMARK    8  A    between atoms: S_20  and  C_27 
REMARK    9  A    between atoms: C_21  and  C_27 
ROOT
HETATM    1  C           1     171.979 189.311 281.147  0.00  0.00     0.029 A 
HETATM    2  C           1     171.182 189.157 280.023  0.00  0.00     0.137 A 
HETATM    3  N           1     171.215 188.069 279.223  0.00  0.00    -0.252 NA
HETATM    4  C           1     172.084 187.093 279.564  0.00  0.00     0.101 A 
HETATM    5  C           1     172.920 187.155 280.667  0.00  0.00     0.006 A 
HETATM    6  C           1     172.864 188.288 281.472  0.00  0.00     0.032 A 
HETATM    7 Br           1     171.865 190.861 282.205  0.00  0.00    -0.050 Br
ENDROOT
BRANCH   5   8
HETATM    8  C           1     173.860 186.034 280.983  0.00  0.00     0.308 C 
BRANCH   8   9
HETATM    9  N           1     175.191 186.553 281.145  0.00  0.00     0.087 N 
HETATM   10  H           1     175.781 186.219 280.384  0.00  0.00     0.316 HD
BRANCH   9  11
HETATM   11  C           1     175.702 186.067 282.397  0.00  0.00     0.270 C 
BRANCH  11  12
HETATM   12  C           1     174.713 185.080 283.002  0.00  0.00     0.034 C 
BRANCH  12  13
HETATM   13  C           1     174.247 185.593 284.357  0.00  0.00    -0.010 C 
HETATM   14  C           1     172.739 185.391 284.479  0.00  0.00     0.035 C 
HETATM   15  C           1     172.250 185.708 285.890  0.00  0.00     0.272 C 
HETATM   16  N           1     172.968 184.924 286.895  0.00  0.00     0.088 N 
HETATM   17  C           1     174.409 185.171 286.837  0.00  0.00     0.272 C 
HETATM   18  C           1     174.979 184.833 285.460  0.00  0.00     0.035 C 
BRANCH  16  19
HETATM   19  C           1     172.497 185.388 288.172  0.00  0.00     0.268 C 
HETATM   20  C           1     173.123 186.741 288.484  0.00  0.00     0.037 C 
ENDBRANCH  16  19
ENDBRANCH  12  13
ENDBRANCH  11  12
ENDBRANCH   9  11
ENDBRANCH   8   9
ENDBRANCH   5   8
BRANCH   4  21
HETATM   21  S           1     172.161 185.613 278.515  0.00  0.00    -0.105 SA
BRANCH  21  22
HETATM   22  C           1     172.643 186.536 277.028  0.00  0.00     0.122 C 
BRANCH  22  23
HETATM   23  C           1     174.050 186.186 276.657  0.00  0.00    -0.049 A 
HETATM   24  C           1     174.295 185.297 275.610  0.00  0.00     0.008 A 
HETATM   25  C           1     175.607 184.971 275.265  0.00  0.00     0.001 A 
HETATM   26  C           1     176.673 185.533 275.967  0.00  0.00     0.000 A 
HETATM   27  C           1     176.427 186.422 277.014  0.00  0.00     0.001 A 
HETATM   28  C           1     175.116 186.748 277.359  0.00  0.00     0.008 A 
ENDBRANCH  22  23
ENDBRANCH  21  22
ENDBRANCH   4  21
TORSDOF 9
ENDMDL
MODEL 3
REMARK VINA RESULT:      -7.2      7.816     11.032
REMARK  9 active torsions:
REMARK  status: ('A' for Active; 'I' for Inactive)
REMARK    1  A    between atoms: C_4  and  S_20 
REMARK    2  A    between atoms: C_5  and  C_7 
REMARK    3  A    between atoms: C_7  and  N_8 
REMARK    4  A    between atoms: N_8  and  C_9 
REMARK    5  A    between atoms: C_9  and  C_10 
REMARK    6  A    between atoms: C_10  and  C_11 
REMARK    7  A    between atoms: N_14  and  C_17 
REMARK    8  A    between atoms: S_20  and  C_27 
REMARK    9  A    between atoms: C_21  and  C_27 
ROOT
HETATM    1  C           1     175.544 182.953 269.124  0.00  0.00     0.029 A 
HETATM    2  C           1     175.560 182.849 270.506  0.00  0.00     0.137 A 
HETATM    3  N           1     175.467 183.908 271.340  0.00  0.00    -0.252 NA
HETATM    4  C           1     175.353 185.124 270.764  0.00  0.00     0.101 A 
HETATM    5  C           1     175.329 185.329 269.393  0.00  0.00     0.006 A 
HETATM    6  C           1     175.427 184.220 268.561  0.00  0.00     0.032 A 
HETATM    7 Br           1     175.678 181.423 268.039  0.00  0.00    -0.050 Br
ENDROOT
BRANCH   5   8
HETATM    8  C           1     175.201 186.708 268.825  0.00  0.00     0.308 C 
BRANCH   8   9
HETATM    9  N           1     174.105 186.745 267.895  0.00  0.00     0.087 N 
HETATM   10  H           1     174.424 186.428 266.980  0.00  0.00     0.316 HD
BRANCH   9  11
HETATM   11  C           1     173.656 188.108 267.801  0.00  0.00     0.270 C 
BRANCH  11  12
HETATM   12  C           1     174.860 189.040 267.786  0.00  0.00     0.034 C 
BRANCH  12  13
HETATM   13  C           1     174.580 190.247 268.671  0.00  0.00    -0.010 C 
HETATM   14  C           1     173.113 190.230 269.091  0.00  0.00     0.035 C 
HETATM   15  C           1     172.824 191.307 270.135  0.00  0.00     0.272 C 
HETATM   16  N           1     173.705 191.178 271.296  0.00  0.00     0.088 N 
HETATM   17  C           1     175.114 191.270 270.911  0.00  0.00     0.272 C 
HETATM   18  C           1     175.488 190.191 269.896  0.00  0.00     0.035 C 
BRANCH  16  19
HETATM   19  C           1     173.410 192.300 272.145  0.00  0.00     0.268 C 
HETATM   20  C           1     174.455 193.387 271.933  0.00  0.00     0.037 C 
ENDBRANCH  16  19
ENDBRANCH  12  13
ENDBRANCH  11  12
ENDBRANCH   9  11
ENDBRANCH   8   9
ENDBRANCH   5   8
BRANCH   4  21
HETATM   21  S           1     175.227 186.575 271.847  0.00  0.00    -0.105 SA
BRANCH  21  22
HETATM   22  C           1     174.765 185.602 273.309  0.00  0.00     0.122 C 
BRANCH  22  23
HETATM   23  C           1     175.880 185.642 274.307  0.00  0.00    -0.049 A 
HETATM   24  C           1     177.082 186.268 273.985  0.00  0.00     0.008 A 
HETATM   25  C           1     178.121 186.305 274.917  0.00  0.00     0.001 A 
HETATM   26  C           1     177.956 185.714 276.169  0.00  0.00     0.000 A 
HETATM   27  C           1     176.752 185.087 276.490  0.00  0.00     0.001 A 
HETATM   28  C           1     175.714 185.050 275.560  0.00  0.00     0.008 A 
ENDBRANCH  22  23
ENDBRANCH  21  22
ENDBRANCH   4  21
TORSDOF 9
ENDMDL
MODEL 4
REMARK VINA RESULT:      -7.1      2.160      8.567
REMARK  9 active torsions:
REMARK  status: ('A' for Active; 'I' for Inactive)
REMARK    1  A    between atoms: C_4  and  S_20 
REMARK    2  A    between atoms: C_5  and  C_7 
REMARK    3  A    between atoms: C_7  and  N_8 
REMARK    4  A    between atoms: N_8  and  C_9 
REMARK    5  A    between atoms: C_9  and  C_10 
REMARK    6  A    between atoms: C_10  and  C_11 
REMARK    7  A    between atoms: N_14  and  C_17 
REMARK    8  A    between atoms: S_20  and  C_27 
REMARK    9  A    between atoms: C_21  and  C_27 
ROOT
HETATM    1  C           1     170.610 188.827 279.071  0.00  0.00     0.029 A 
HETATM    2  C           1     170.604 188.507 277.722  0.00  0.00     0.137 A 
HETATM    3  N           1     171.423 187.589 277.164  0.00  0.00    -0.252 NA
HETATM    4  C           1     172.287 186.965 277.995  0.00  0.00     0.101 A 
HETATM    5  C           1     172.367 187.216 279.355  0.00  0.00     0.006 A 
HETATM    6  C           1     171.511 188.167 279.900  0.00  0.00     0.032 A 
HETATM    7 Br           1     169.431 190.120 279.761  0.00  0.00    -0.050 Br
ENDROOT
BRANCH   5   8
HETATM    8  C           1     173.350 186.485 280.215  0.00  0.00     0.308 C 
BRANCH   8   9
HETATM    9  N           1     173.963 187.406 281.134  0.00  0.00     0.087 N 
HETATM   10  H           1     174.563 188.051 280.620  0.00  0.00     0.316 HD
BRANCH   9  11
HETATM   11  C           1     174.759 186.642 282.055  0.00  0.00     0.270 C 
BRANCH  11  12
HETATM   12  C           1     174.217 185.221 282.139  0.00  0.00     0.034 C 
BRANCH  12  13
HETATM   13  C           1     173.974 184.855 283.597  0.00  0.00    -0.010 C 
HETATM   14  C           1     175.049 185.506 284.463  0.00  0.00     0.035 C 
HETATM   15  C           1     174.743 185.333 285.949  0.00  0.00     0.272 C 
HETATM   16  N           1     173.415 185.847 286.286  0.00  0.00     0.088 N 
HETATM   17  C           1     172.369 185.173 285.514  0.00  0.00     0.272 C 
HETATM   18  C           1     172.588 185.340 284.011  0.00  0.00     0.035 C 
BRANCH  16  19
HETATM   19  C           1     173.207 185.531 287.673  0.00  0.00     0.268 C 
HETATM   20  C           1     174.463 185.866 288.465  0.00  0.00     0.037 C 
ENDBRANCH  16  19
ENDBRANCH  12  13
ENDBRANCH  11  12
ENDBRANCH   9  11
ENDBRANCH   8   9
ENDBRANCH   5   8
BRANCH   4  21
HETATM   21  S           1     173.407 185.724 277.288  0.00  0.00    -0.105 SA
BRANCH  21  22
HETATM   22  C           1     173.914 186.784 275.904  0.00  0.00     0.122 C 
BRANCH  22  23
HETATM   23  C           1     175.367 186.569 275.617  0.00  0.00    -0.049 A 
HETATM   24  C           1     176.275 186.447 276.668  0.00  0.00     0.008 A 
HETATM   25  C           1     177.629 186.246 276.399  0.00  0.00     0.001 A 
HETATM   26  C           1     178.075 186.168 275.080  0.00  0.00     0.000 A 
HETATM   27  C           1     177.166 186.292 274.029  0.00  0.00     0.001 A 
HETATM   28  C           1     175.812 186.492 274.297  0.00  0.00     0.008 A 
ENDBRANCH  22  23
ENDBRANCH  21  22
ENDBRANCH   4  21
TORSDOF 9
ENDMDL
MODEL 5
REMARK VINA RESULT:      -7.1      7.931     11.257
REMARK  9 active torsions:
REMARK  status: ('A' for Active; 'I' for Inactive)
REMARK    1  A    between atoms: C_4  and  S_20 
REMARK    2  A    between atoms: C_5  and  C_7 
REMARK    3  A    between atoms: C_7  and  N_8 
REMARK    4  A    between atoms: N_8  and  C_9 
REMARK    5  A    between atoms: C_9  and  C_10 
REMARK    6  A    between atoms: C_10  and  C_11 
REMARK    7  A    between atoms: N_14  and  C_17 
REMARK    8  A    between atoms: S_20  and  C_27 
REMARK    9  A    between atoms: C_21  and  C_27 
ROOT
HETATM    1  C           1     175.402 183.773 268.153  0.00  0.00     0.029 A 
HETATM    2  C           1     175.794 183.440 269.441  0.00  0.00     0.137 A 
HETATM    3  N           1     175.715 184.286 270.492  0.00  0.00    -0.252 NA
HETATM    4  C           1     175.223 185.519 270.241  0.00  0.00     0.101 A 
HETATM    5  C           1     174.806 185.943 268.989  0.00  0.00     0.006 A 
HETATM    6  C           1     174.900 185.050 267.927  0.00  0.00     0.032 A 
HETATM    7 Br           1     175.546 182.529 266.750  0.00  0.00    -0.050 Br
ENDROOT
BRANCH   5   8
HETATM    8  C           1     174.271 187.326 268.785  0.00  0.00     0.308 C 
BRANCH   8   9
HETATM    9  N           1     175.084 188.018 267.821  0.00  0.00     0.087 N 
HETATM   10  H           1     176.056 187.730 267.927  0.00  0.00     0.316 HD
BRANCH   9  11
HETATM   11  C           1     174.969 189.427 268.084  0.00  0.00     0.270 C 
BRANCH  11  12
HETATM   12  C           1     175.429 189.719 269.505  0.00  0.00     0.034 C 
BRANCH  12  13
HETATM   13  C           1     174.564 190.819 270.104  0.00  0.00    -0.010 C 
HETATM   14  C           1     173.609 190.206 271.124  0.00  0.00     0.035 C 
HETATM   15  C           1     172.853 191.287 271.894  0.00  0.00     0.272 C 
HETATM   16  N           1     173.772 192.230 272.534  0.00  0.00     0.088 N 
HETATM   17  C           1     174.640 192.880 271.553  0.00  0.00     0.272 C 
HETATM   18  C           1     175.462 191.858 270.769  0.00  0.00     0.035 C 
BRANCH  16  19
HETATM   19  C           1     172.947 193.246 273.129  0.00  0.00     0.268 C 
HETATM   20  C           1     172.423 194.176 272.042  0.00  0.00     0.037 C 
ENDBRANCH  16  19
ENDBRANCH  12  13
ENDBRANCH  11  12
ENDBRANCH   9  11
ENDBRANCH   8   9
ENDBRANCH   5   8
BRANCH   4  21
HETATM   21  S           1     175.101 186.688 271.624  0.00  0.00    -0.105 SA
BRANCH  21  22
HETATM   22  C           1     174.864 185.388 272.869  0.00  0.00     0.122 C 
BRANCH  22  23
HETATM   23  C           1     175.873 185.555 273.962  0.00  0.00    -0.049 A 
HETATM   24  C           1     175.630 185.013 275.224  0.00  0.00     0.008 A 
HETATM   25  C           1     176.571 185.169 276.242  0.00  0.00     0.001 A 
HETATM   26  C           1     177.755 185.866 275.998  0.00  0.00     0.000 A 
HETATM   27  C           1     177.996 186.408 274.736  0.00  0.00     0.001 A 
HETATM   28  C           1     177.056 186.253 273.718  0.00  0.00     0.008 A 
ENDBRANCH  22  23
ENDBRANCH  21  22
ENDBRANCH   4  21
TORSDOF 9
ENDMDL
MODEL 6
REMARK VINA RESULT:      -7.1      2.941      9.757
REMARK  9 active torsions:
REMARK  status: ('A' for Active; 'I' for Inactive)
REMARK    1  A    between atoms: C_4  and  S_20 
REMARK    2  A    between atoms: C_5  and  C_7 
REMARK    3  A    between atoms: C_7  and  N_8 
REMARK    4  A    between atoms: N_8  and  C_9 
REMARK    5  A    between atoms: C_9  and  C_10 
REMARK    6  A    between atoms: C_10  and  C_11 
REMARK    7  A    between atoms: N_14  and  C_17 
REMARK    8  A    between atoms: S_20  and  C_27 
REMARK    9  A    between atoms: C_21  and  C_27 
ROOT
HETATM    1  C           1     171.494 189.581 283.102  0.00  0.00     0.029 A 
HETATM    2  C           1     172.284 189.761 281.976  0.00  0.00     0.137 A 
HETATM    3  N           1     173.202 188.866 281.553  0.00  0.00    -0.252 NA
HETATM    4  C           1     173.336 187.741 282.289  0.00  0.00     0.101 A 
HETATM    5  C           1     172.594 187.472 283.428  0.00  0.00     0.006 A 
HETATM    6  C           1     171.656 188.413 283.839  0.00  0.00     0.032 A 
HETATM    7 Br           1     170.238 190.883 283.618  0.00  0.00    -0.050 Br
ENDROOT
BRANCH   5   8
HETATM    8  C           1     172.797 186.203 284.195  0.00  0.00     0.308 C 
BRANCH   8   9
HETATM    9  N           1     173.856 186.383 285.151  0.00  0.00     0.087 N 
HETATM   10  H           1     174.756 186.336 284.674  0.00  0.00     0.316 HD
BRANCH   9  11
HETATM   11  C           1     173.765 185.317 286.111  0.00  0.00     0.270 C 
BRANCH  11  12
HETATM   12  C           1     174.386 185.764 287.428  0.00  0.00     0.034 C 
BRANCH  12  13
HETATM   13  C           1     173.289 185.961 288.466  0.00  0.00    -0.010 C 
HETATM   14  C           1     173.900 185.877 289.862  0.00  0.00     0.035 C 
HETATM   15  C           1     172.883 186.259 290.935  0.00  0.00     0.272 C 
HETATM   16  N           1     172.317 187.586 290.687  0.00  0.00     0.088 N 
HETATM   17  C           1     171.661 187.653 289.381  0.00  0.00     0.272 C 
HETATM   18  C           1     172.633 187.321 288.250  0.00  0.00     0.035 C 
BRANCH  16  19
HETATM   19  C           1     171.307 187.781 291.693  0.00  0.00     0.268 C 
HETATM   20  C           1     171.533 186.801 292.837  0.00  0.00     0.037 C 
ENDBRANCH  16  19
ENDBRANCH  12  13
ENDBRANCH  11  12
ENDBRANCH   9  11
ENDBRANCH   8   9
ENDBRANCH   5   8
BRANCH   4  21
HETATM   21  S           1     174.560 186.511 281.756  0.00  0.00    -0.105 SA
BRANCH  21  22
HETATM   22  C           1     174.884 187.333 280.170  0.00  0.00     0.122 C 
BRANCH  22  23
HETATM   23  C           1     174.097 186.660 279.089  0.00  0.00    -0.049 A 
HETATM   24  C           1     172.933 185.961 279.406  0.00  0.00     0.008 A 
HETATM   25  C           1     172.201 185.335 278.397  0.00  0.00     0.001 A 
HETATM   26  C           1     172.632 185.407 277.073  0.00  0.00     0.000 A 
HETATM   27  C           1     173.797 186.107 276.757  0.00  0.00     0.001 A 
HETATM   28  C           1     174.529 186.733 277.764  0.00  0.00     0.008 A 
ENDBRANCH  22  23
ENDBRANCH  21  22
ENDBRANCH   4  21
TORSDOF 9
ENDMDL
MODEL 7
REMARK VINA RESULT:      -7.1      7.353     11.240
REMARK  9 active torsions:
REMARK  status: ('A' for Active; 'I' for Inactive)
REMARK    1  A    between atoms: C_4  and  S_20 
REMARK    2  A    between atoms: C_5  and  C_7 
REMARK    3  A    between atoms: C_7  and  N_8 
REMARK    4  A    between atoms: N_8  and  C_9 
REMARK    5  A    between atoms: C_9  and  C_10 
REMARK    6  A    between atoms: C_10  and  C_11 
REMARK    7  A    between atoms: N_14  and  C_17 
REMARK    8  A    between atoms: S_20  and  C_27 
REMARK    9  A    between atoms: C_21  and  C_27 
ROOT
HETATM    1  C           1     176.798 186.259 275.473  0.00  0.00     0.029 A 
HETATM    2  C           1     176.547 187.620 275.554  0.00  0.00     0.137 A 
HETATM    3  N           1     175.709 188.279 274.724  0.00  0.00    -0.252 NA
HETATM    4  C           1     175.095 187.542 273.773  0.00  0.00     0.101 A 
HETATM    5  C           1     175.282 186.178 273.614  0.00  0.00     0.006 A 
HETATM    6  C           1     176.151 185.528 274.483  0.00  0.00     0.032 A 
HETATM    7 Br           1     177.982 185.424 276.673  0.00  0.00    -0.050 Br
ENDROOT
BRANCH   5   8
HETATM    8  C           1     174.567 185.425 272.536  0.00  0.00     0.308 C 
BRANCH   8   9
HETATM    9  N           1     174.720 184.012 272.754  0.00  0.00     0.087 N 
HETATM   10  H           1     175.484 183.850 273.409  0.00  0.00     0.316 HD
BRANCH   9  11
HETATM   11  C           1     175.036 183.405 271.489  0.00  0.00     0.270 C 
BRANCH  11  12
HETATM   12  C           1     176.250 184.094 270.883  0.00  0.00     0.034 C 
BRANCH  12  13
HETATM   13  C           1     176.358 183.730 269.409  0.00  0.00    -0.010 C 
HETATM   14  C           1     175.008 183.961 268.736  0.00  0.00     0.035 C 
HETATM   15  C           1     175.109 183.798 267.221  0.00  0.00     0.272 C 
HETATM   16  N           1     176.135 184.675 266.655  0.00  0.00     0.088 N 
HETATM   17  C           1     177.449 184.408 267.240  0.00  0.00     0.272 C 
HETATM   18  C           1     177.434 184.594 268.757  0.00  0.00     0.035 C 
BRANCH  16  19
HETATM   19  C           1     176.206 184.353 265.256  0.00  0.00     0.268 C 
HETATM   20  C           1     176.771 182.949 265.086  0.00  0.00     0.037 C 
ENDBRANCH  16  19
ENDBRANCH  12  13
ENDBRANCH  11  12
ENDBRANCH   9  11
ENDBRANCH   8   9
ENDBRANCH   5   8
BRANCH   4  21
HETATM   21  S           1     173.961 188.388 272.636  0.00  0.00    -0.105 SA
BRANCH  21  22
HETATM   22  C           1     175.295 189.143 271.663  0.00  0.00     0.122 C 
BRANCH  22  23
HETATM   23  C           1     175.002 188.980 270.204  0.00  0.00    -0.049 A 
HETATM   24  C           1     174.894 187.704 269.653  0.00  0.00     0.008 A 
HETATM   25  C           1     174.621 187.553 268.293  0.00  0.00     0.001 A 
HETATM   26  C           1     174.457 188.678 267.485  0.00  0.00     0.000 A 
HETATM   27  C           1     174.565 189.955 268.038  0.00  0.00     0.001 A 
HETATM   28  C           1     174.838 190.106 269.397  0.00  0.00     0.008 A 
ENDBRANCH  22  23
ENDBRANCH  21  22
ENDBRANCH   4  21
TORSDOF 9
ENDMDL
MODEL 8
REMARK VINA RESULT:      -7.0      7.931     11.176
REMARK  9 active torsions:
REMARK  status: ('A' for Active; 'I' for Inactive)
REMARK    1  A    between atoms: C_4  and  S_20 
REMARK    2  A    between atoms: C_5  and  C_7 
REMARK    3  A    between atoms: C_7  and  N_8 
REMARK    4  A    between atoms: N_8  and  C_9 
REMARK    5  A    between atoms: C_9  and  C_10 
REMARK    6  A    between atoms: C_10  and  C_11 
REMARK    7  A    between atoms: N_14  and  C_17 
REMARK    8  A    between atoms: S_20  and  C_27 
REMARK    9  A    between atoms: C_21  and  C_27 
ROOT
HETATM    1  C           1     175.981 185.194 268.301  0.00  0.00     0.029 A 
HETATM    2  C           1     176.102 184.468 269.476  0.00  0.00     0.137 A 
HETATM    3  N           1     175.704 184.924 270.684  0.00  0.00    -0.252 NA
HETATM    4  C           1     175.161 186.160 270.716  0.00  0.00     0.101 A 
HETATM    5  C           1     174.999 186.961 269.597  0.00  0.00     0.006 A 
HETATM    6  C           1     175.418 186.465 268.367  0.00  0.00     0.032 A 
HETATM    7 Br           1     176.561 184.479 266.661  0.00  0.00    -0.050 Br
ENDROOT
BRANCH   5   8
HETATM    8  C           1     174.389 188.323 269.708  0.00  0.00     0.308 C 
BRANCH   8   9
HETATM    9  N           1     175.364 189.317 269.348  0.00  0.00     0.087 N 
HETATM   10  H           1     176.175 188.862 268.929  0.00  0.00     0.316 HD
BRANCH   9  11
HETATM   11  C           1     175.764 189.995 270.552  0.00  0.00     0.270 C 
BRANCH  11  12
HETATM   12  C           1     175.470 191.483 270.419  0.00  0.00     0.034 C 
BRANCH  12  13
HETATM   13  C           1     174.318 191.857 271.341  0.00  0.00    -0.010 C 
HETATM   14  C           1     174.587 193.231 271.947  0.00  0.00     0.035 C 
HETATM   15  C           1     173.376 193.740 272.726  0.00  0.00     0.272 C 
HETATM   16  N           1     172.173 193.760 271.892  0.00  0.00     0.088 N 
HETATM   17  C           1     171.863 192.430 271.368  0.00  0.00     0.272 C 
HETATM   18  C           1     173.019 191.872 270.539  0.00  0.00     0.035 C 
BRANCH  16  19
HETATM   19  C           1     171.095 194.150 272.760  0.00  0.00     0.268 C 
HETATM   20  C           1     170.367 195.346 272.161  0.00  0.00     0.037 C 
ENDBRANCH  16  19
ENDBRANCH  12  13
ENDBRANCH  11  12
ENDBRANCH   9  11
ENDBRANCH   8   9
ENDBRANCH   5   8
BRANCH   4  21
HETATM   21  S           1     174.614 186.812 272.320  0.00  0.00    -0.105 SA
BRANCH  21  22
HETATM   22  C           1     176.296 187.199 272.881  0.00  0.00     0.122 C 
BRANCH  22  23
HETATM   23  C           1     176.592 186.437 274.135  0.00  0.00    -0.049 A 
HETATM   24  C           1     175.617 185.613 274.696  0.00  0.00     0.008 A 
HETATM   25  C           1     175.894 184.903 275.865  0.00  0.00     0.001 A 
HETATM   26  C           1     177.144 185.018 276.473  0.00  0.00     0.000 A 
HETATM   27  C           1     178.118 185.844 275.911  0.00  0.00     0.001 A 
HETATM   28  C           1     177.842 186.554 274.742  0.00  0.00     0.008 A 
ENDBRANCH  22  23
ENDBRANCH  21  22
ENDBRANCH   4  21
TORSDOF 9
ENDMDL
MODEL 9
REMARK VINA RESULT:      -7.0      3.716      9.854
REMARK  9 active torsions:
REMARK  status: ('A' for Active; 'I' for Inactive)
REMARK    1  A    between atoms: C_4  and  S_20 
REMARK    2  A    between atoms: C_5  and  C_7 
REMARK    3  A    between atoms: C_7  and  N_8 
REMARK    4  A    between atoms: N_8  and  C_9 
REMARK    5  A    between atoms: C_9  and  C_10 
REMARK    6  A    between atoms: C_10  and  C_11 
REMARK    7  A    between atoms: N_14  and  C_17 
REMARK    8  A    between atoms: S_20  and  C_27 
REMARK    9  A    between atoms: C_21  and  C_27 
ROOT
HETATM    1  C           1     177.388 185.718 276.118  0.00  0.00     0.029 A 
HETATM    2  C           1     177.709 186.144 274.838  0.00  0.00     0.137 A 
HETATM    3  N           1     176.792 186.390 273.877  0.00  0.00    -0.252 NA
HETATM    4  C           1     175.497 186.200 274.213  0.00  0.00     0.101 A 
HETATM    5  C           1     175.079 185.775 275.464  0.00  0.00     0.006 A 
HETATM    6  C           1     176.047 185.530 276.433  0.00  0.00     0.032 A 
HETATM    7 Br           1     178.733 185.401 277.394  0.00  0.00    -0.050 Br
ENDROOT
BRANCH   5   8
HETATM    8  C           1     173.625 185.585 275.765  0.00  0.00     0.308 C 
BRANCH   8   9
HETATM    9  N           1     173.431 185.538 277.190  0.00  0.00     0.087 N 
HETATM   10  H           1     172.742 184.822 277.415  0.00  0.00     0.316 HD
BRANCH   9  11
HETATM   11  C           1     172.941 186.824 277.607  0.00  0.00     0.270 C 
BRANCH  11  12
HETATM   12  C           1     172.274 186.696 278.970  0.00  0.00     0.034 C 
BRANCH  12  13
HETATM   13  C           1     173.295 186.217 279.993  0.00  0.00    -0.010 C 
HETATM   14  C           1     174.481 187.178 280.005  0.00  0.00     0.035 C 
HETATM   15  C           1     175.443 186.856 281.147  0.00  0.00     0.272 C 
HETATM   16  N           1     174.757 186.851 282.440  0.00  0.00     0.088 N 
HETATM   17  C           1     173.666 185.876 282.463  0.00  0.00     0.272 C 
HETATM   18  C           1     172.638 186.162 281.369  0.00  0.00     0.035 C 
BRANCH  16  19
HETATM   19  C           1     175.735 186.433 283.407  0.00  0.00     0.268 C 
HETATM   20  C           1     175.068 185.561 284.462  0.00  0.00     0.037 C 
ENDBRANCH  16  19
ENDBRANCH  12  13
ENDBRANCH  11  12
ENDBRANCH   9  11
ENDBRANCH   8   9
ENDBRANCH   5   8
BRANCH   4  21
HETATM   21  S           1     174.231 186.517 272.951  0.00  0.00    -0.105 SA
BRANCH  21  22
HETATM   22  C           1     175.410 186.464 271.572  0.00  0.00     0.122 C 
BRANCH  22  23
HETATM   23  C           1     175.424 185.089 270.980  0.00  0.00    -0.049 A 
HETATM   24  C           1     176.634 184.419 270.802  0.00  0.00     0.008 A 
HETATM   25  C           1     176.645 183.138 270.250  0.00  0.00     0.001 A 
HETATM   26  C           1     175.448 182.527 269.876  0.00  0.00     0.000 A 
HETATM   27  C           1     174.239 183.199 270.054  0.00  0.00     0.001 A 
HETATM   28  C           1     174.226 184.480 270.606  0.00  0.00     0.008 A 
ENDBRANCH  22  23
ENDBRANCH  21  22
ENDBRANCH   4  21
TORSDOF 9
ENDMDL
