MODEL 1
REMARK VINA RESULT:      -8.5      0.000      0.000
REMARK  10 active torsions:
REMARK  status: ('A' for Active; 'I' for Inactive)
REMARK    1  A    between atoms: C_1  and  C_20 
REMARK    2  A    between atoms: C_5  and  S_28 
REMARK    3  A    between atoms: C_6  and  C_8 
REMARK    4  A    between atoms: C_8  and  N_9 
REMARK    5  A    between atoms: N_9  and  C_10 
REMARK    6  A    between atoms: C_10  and  C_11 
REMARK    7  A    between atoms: C_11  and  C_12 
REMARK    8  A    between atoms: N_15  and  C_18 
REMARK    9  A    between atoms: S_28  and  C_35 
REMARK   10  A    between atoms: C_29  and  C_35 
ROOT
HETATM    1  C           1     171.523 189.398 281.277  0.00  0.00    -0.007 A 
HETATM    2  C           1     170.973 189.199 280.021  0.00  0.00     0.101 A 
HETATM    3  N           1     171.235 188.122 279.248  0.00  0.00    -0.359 N 
ATOM      4  HN          1     170.813 188.009 278.326  1.00  0.00     0.166 HD
HETATM    5  C           1     172.084 187.204 279.757  0.00  0.00     0.077 A 
HETATM    6  C           1     172.683 187.314 281.001  0.00  0.00     0.004 A 
HETATM    7  C           1     172.394 188.434 281.774  0.00  0.00     0.025 A 
ENDROOT
BRANCH   6   8
HETATM    8  C           1     173.616 186.255 281.502  0.00  0.00     0.307 C 
BRANCH   8   9
HETATM    9  N           1     174.669 186.866 282.267  0.00  0.00     0.087 N 
HETATM   10  H           1     175.231 187.460 281.657  0.00  0.00     0.316 HD
BRANCH   9  11
HETATM   11  C           1     175.490 185.813 282.799  0.00  0.00     0.270 C 
BRANCH  11  12
HETATM   12  C           1     174.640 184.891 283.662  0.00  0.00     0.034 C 
BRANCH  12  13
HETATM   13  C           1     174.270 185.602 284.957  0.00  0.00    -0.010 C 
HETATM   14  C           1     172.794 185.357 285.258  0.00  0.00     0.035 C 
HETATM   15  C           1     172.418 185.885 286.642  0.00  0.00     0.272 C 
HETATM   16  N           1     173.271 185.314 287.684  0.00  0.00     0.088 N 
HETATM   17  C           1     174.684 185.611 287.442  0.00  0.00     0.272 C 
HETATM   18  C           1     175.144 185.073 286.089  0.00  0.00     0.035 C 
BRANCH  16  19
HETATM   19  C           1     172.891 185.964 288.909  0.00  0.00     0.268 C 
HETATM   20  C           1     173.922 185.660 289.988  0.00  0.00     0.037 C 
ENDBRANCH  16  19
ENDBRANCH  12  13
ENDBRANCH  11  12
ENDBRANCH   9  11
ENDBRANCH   8   9
ENDBRANCH   6   8
BRANCH   5  21
HETATM   21  S           1     172.463 185.741 278.752  0.00  0.00    -0.107 SA
BRANCH  21  22
HETATM   22  C           1     172.876 186.707 277.272  0.00  0.00     0.122 C 
BRANCH  22  23
HETATM   23  C           1     174.209 186.272 276.747  0.00  0.00    -0.049 A 
HETATM   24  C           1     174.280 185.359 275.696  0.00  0.00     0.008 A 
HETATM   25  C           1     175.522 184.954 275.206  0.00  0.00     0.001 A 
HETATM   26  C           1     176.692 185.463 275.769  0.00  0.00     0.000 A 
HETATM   27  C           1     176.621 186.377 276.820  0.00  0.00     0.001 A 
HETATM   28  C           1     175.379 186.781 277.309  0.00  0.00     0.008 A 
ENDBRANCH  22  23
ENDBRANCH  21  22
ENDBRANCH   5  21
BRANCH   1  29
HETATM   29  C           1     171.224 190.487 281.993  0.00  0.00     0.014 A 
HETATM   30  C           1     172.029 191.623 281.904  0.00  0.00     0.130 A 
HETATM   31  F           1     173.086 191.622 281.113  0.00  0.00    -0.205 F 
HETATM   32  C           1     171.717 192.759 282.650  0.00  0.00     0.085 A 
HETATM   33  C           1     170.600 192.759 283.486  0.00  0.00     0.119 A 
HETATM   34  F           1     170.304 193.835 284.192  0.00  0.00    -0.206 F 
HETATM   35  C           1     169.795 191.624 283.574  0.00  0.00     0.043 A 
HETATM   36  C           1     170.107 190.487 282.828  0.00  0.00     0.018 A 
ENDBRANCH   1  29
TORSDOF 10
ENDMDL
MODEL 2
REMARK VINA RESULT:      -8.4      8.706     12.243
REMARK  10 active torsions:
REMARK  status: ('A' for Active; 'I' for Inactive)
REMARK    1  A    between atoms: C_1  and  C_20 
REMARK    2  A    between atoms: C_5  and  S_28 
REMARK    3  A    between atoms: C_6  and  C_8 
REMARK    4  A    between atoms: C_8  and  N_9 
REMARK    5  A    between atoms: N_9  and  C_10 
REMARK    6  A    between atoms: C_10  and  C_11 
REMARK    7  A    between atoms: C_11  and  C_12 
REMARK    8  A    between atoms: N_15  and  C_18 
REMARK    9  A    between atoms: S_28  and  C_35 
REMARK   10  A    between atoms: C_29  and  C_35 
ROOT
HETATM    1  C           1     175.544 185.616 272.654  0.00  0.00    -0.007 A 
HETATM    2  C           1     176.016 184.794 271.644  0.00  0.00     0.101 A 
HETATM    3  N           1     175.417 184.663 270.440  0.00  0.00    -0.359 N 
ATOM      4  HN          1     175.792 184.047 269.719  1.00  0.00     0.166 HD
HETATM    5  C           1     174.295 185.389 270.240  0.00  0.00     0.077 A 
HETATM    6  C           1     173.747 186.237 271.188  0.00  0.00     0.004 A 
HETATM    7  C           1     174.387 186.350 272.418  0.00  0.00     0.025 A 
ENDROOT
BRANCH   6   8
HETATM    8  C           1     172.499 187.011 270.897  0.00  0.00     0.307 C 
BRANCH   8   9
HETATM    9  N           1     172.775 188.419 270.988  0.00  0.00     0.087 N 
HETATM   10  H           1     173.292 188.609 271.847  0.00  0.00     0.316 HD
BRANCH   9  11
HETATM   11  C           1     171.515 189.110 271.024  0.00  0.00     0.270 C 
BRANCH  11  12
HETATM   12  C           1     171.739 190.591 270.751  0.00  0.00     0.034 C 
BRANCH  12  13
HETATM   13  C           1     172.864 191.109 271.637  0.00  0.00    -0.010 C 
HETATM   14  C           1     173.549 192.282 270.942  0.00  0.00     0.035 C 
HETATM   15  C           1     174.557 192.962 271.869  0.00  0.00     0.272 C 
HETATM   16  N           1     173.932 193.384 273.123  0.00  0.00     0.088 N 
HETATM   17  C           1     173.338 192.250 273.833  0.00  0.00     0.272 C 
HETATM   18  C           1     172.287 191.544 272.979  0.00  0.00     0.035 C 
BRANCH  16  19
HETATM   19  C           1     174.994 193.904 273.940  0.00  0.00     0.268 C 
HETATM   20  C           1     174.897 193.311 275.339  0.00  0.00     0.037 C 
ENDBRANCH  16  19
ENDBRANCH  12  13
ENDBRANCH  11  12
ENDBRANCH   9  11
ENDBRANCH   8   9
ENDBRANCH   6   8
BRANCH   5  21
HETATM   21  S           1     173.459 185.243 268.636  0.00  0.00    -0.107 SA
BRANCH  21  22
HETATM   22  C           1     174.650 186.309 267.775  0.00  0.00     0.122 C 
BRANCH  22  23
HETATM   23  C           1     174.107 187.701 267.693  0.00  0.00    -0.049 A 
HETATM   24  C           1     174.879 188.779 268.125  0.00  0.00     0.008 A 
HETATM   25  C           1     174.373 190.076 268.047  0.00  0.00     0.001 A 
HETATM   26  C           1     173.093 190.296 267.537  0.00  0.00     0.000 A 
HETATM   27  C           1     172.321 189.218 267.104  0.00  0.00     0.001 A 
HETATM   28  C           1     172.828 187.921 267.182  0.00  0.00     0.008 A 
ENDBRANCH  22  23
ENDBRANCH  21  22
ENDBRANCH   5  21
BRANCH   1  29
HETATM   29  C           1     176.184 185.701 273.825  0.00  0.00     0.014 A 
HETATM   30  C           1     175.581 185.217 274.986  0.00  0.00     0.130 A 
HETATM   31  F           1     174.378 184.675 274.928  0.00  0.00    -0.205 F 
HETATM   32  C           1     176.249 185.305 276.208  0.00  0.00     0.085 A 
HETATM   33  C           1     177.519 185.878 276.268  0.00  0.00     0.119 A 
HETATM   34  F           1     178.151 185.960 277.424  0.00  0.00    -0.206 F 
HETATM   35  C           1     178.122 186.361 275.107  0.00  0.00     0.043 A 
HETATM   36  C           1     177.455 186.273 273.886  0.00  0.00     0.018 A 
ENDBRANCH   1  29
TORSDOF 10
ENDMDL
MODEL 3
REMARK VINA RESULT:      -8.3      1.971      7.836
REMARK  10 active torsions:
REMARK  status: ('A' for Active; 'I' for Inactive)
REMARK    1  A    between atoms: C_1  and  C_20 
REMARK    2  A    between atoms: C_5  and  S_28 
REMARK    3  A    between atoms: C_6  and  C_8 
REMARK    4  A    between atoms: C_8  and  N_9 
REMARK    5  A    between atoms: N_9  and  C_10 
REMARK    6  A    between atoms: C_10  and  C_11 
REMARK    7  A    between atoms: C_11  and  C_12 
REMARK    8  A    between atoms: N_15  and  C_18 
REMARK    9  A    between atoms: S_28  and  C_35 
REMARK   10  A    between atoms: C_29  and  C_35 
ROOT
HETATM    1  C           1     172.615 189.511 282.389  0.00  0.00    -0.007 A 
HETATM    2  C           1     173.522 189.268 283.408  0.00  0.00     0.101 A 
HETATM    3  N           1     174.440 188.277 283.377  0.00  0.00    -0.359 N 
ATOM      4  HN          1     175.092 188.126 284.146  1.00  0.00     0.166 HD
HETATM    5  C           1     174.450 187.496 282.274  0.00  0.00     0.077 A 
HETATM    6  C           1     173.585 187.661 281.205  0.00  0.00     0.004 A 
HETATM    7  C           1     172.651 188.690 281.267  0.00  0.00     0.025 A 
ENDROOT
BRANCH   6   8
HETATM    8  C           1     173.654 186.756 280.014  0.00  0.00     0.307 C 
BRANCH   8   9
HETATM    9  N           1     172.467 185.947 279.956  0.00  0.00     0.087 N 
HETATM   10  H           1     172.524 185.210 280.659  0.00  0.00     0.316 HD
BRANCH   9  11
HETATM   11  C           1     172.403 185.358 278.647  0.00  0.00     0.270 C 
BRANCH  11  12
HETATM   12  C           1     172.703 186.418 277.596  0.00  0.00     0.034 C 
BRANCH  12  13
HETATM   13  C           1     173.300 185.757 276.361  0.00  0.00    -0.010 C 
HETATM   14  C           1     173.047 186.645 275.146  0.00  0.00     0.035 C 
HETATM   15  C           1     173.791 186.125 273.917  0.00  0.00     0.272 C 
HETATM   16  N           1     175.224 185.984 274.177  0.00  0.00     0.088 N 
HETATM   17  C           1     175.478 185.073 275.294  0.00  0.00     0.272 C 
HETATM   18  C           1     174.796 185.553 276.574  0.00  0.00     0.035 C 
BRANCH  16  19
HETATM   19  C           1     175.787 185.393 272.994  0.00  0.00     0.268 C 
HETATM   20  C           1     174.807 184.380 272.416  0.00  0.00     0.037 C 
ENDBRANCH  16  19
ENDBRANCH  12  13
ENDBRANCH  11  12
ENDBRANCH   9  11
ENDBRANCH   8   9
ENDBRANCH   6   8
BRANCH   5  21
HETATM   21  S           1     175.669 186.154 282.190  0.00  0.00    -0.107 SA
BRANCH  21  22
HETATM   22  C           1     174.446 184.853 282.517  0.00  0.00     0.122 C 
BRANCH  22  23
HETATM   23  C           1     174.027 184.910 283.953  0.00  0.00    -0.049 A 
HETATM   24  C           1     172.700 185.182 284.282  0.00  0.00     0.008 A 
HETATM   25  C           1     172.310 185.235 285.620  0.00  0.00     0.001 A 
HETATM   26  C           1     173.248 185.016 286.629  0.00  0.00     0.000 A 
HETATM   27  C           1     174.576 184.743 286.300  0.00  0.00     0.001 A 
HETATM   28  C           1     174.965 184.690 284.962  0.00  0.00     0.008 A 
ENDBRANCH  22  23
ENDBRANCH  21  22
ENDBRANCH   5  21
BRANCH   1  29
HETATM   29  C           1     171.729 190.509 282.481  0.00  0.00     0.014 A 
HETATM   30  C           1     171.999 191.739 281.882  0.00  0.00     0.130 A 
HETATM   31  F           1     173.129 191.918 281.222  0.00  0.00    -0.205 F 
HETATM   32  C           1     171.076 192.779 281.978  0.00  0.00     0.085 A 
HETATM   33  C           1     169.882 192.590 282.675  0.00  0.00     0.119 A 
HETATM   34  F           1     169.007 193.574 282.766  0.00  0.00    -0.206 F 
HETATM   35  C           1     169.612 191.360 283.275  0.00  0.00     0.043 A 
HETATM   36  C           1     170.536 190.319 283.178  0.00  0.00     0.018 A 
ENDBRANCH   1  29
TORSDOF 10
ENDMDL
MODEL 4
REMARK VINA RESULT:      -8.3      9.123     15.453
REMARK  10 active torsions:
REMARK  status: ('A' for Active; 'I' for Inactive)
REMARK    1  A    between atoms: C_1  and  C_20 
REMARK    2  A    between atoms: C_5  and  S_28 
REMARK    3  A    between atoms: C_6  and  C_8 
REMARK    4  A    between atoms: C_8  and  N_9 
REMARK    5  A    between atoms: N_9  and  C_10 
REMARK    6  A    between atoms: C_10  and  C_11 
REMARK    7  A    between atoms: C_11  and  C_12 
REMARK    8  A    between atoms: N_15  and  C_18 
REMARK    9  A    between atoms: S_28  and  C_35 
REMARK   10  A    between atoms: C_29  and  C_35 
ROOT
HETATM    1  C           1     175.650 185.704 272.584  0.00  0.00    -0.007 A 
HETATM    2  C           1     174.562 186.514 272.299  0.00  0.00     0.101 A 
HETATM    3  N           1     173.910 186.509 271.116  0.00  0.00    -0.359 N 
ATOM      4  HN          1     173.113 187.119 270.940  1.00  0.00     0.166 HD
HETATM    5  C           1     174.369 185.653 270.176  0.00  0.00     0.077 A 
HETATM    6  C           1     175.448 184.806 270.367  0.00  0.00     0.004 A 
HETATM    7  C           1     176.098 184.834 271.596  0.00  0.00     0.025 A 
ENDROOT
BRANCH   6   8
HETATM    8  C           1     175.902 183.883 269.278  0.00  0.00     0.307 C 
BRANCH   8   9
HETATM    9  N           1     177.294 184.116 269.001  0.00  0.00     0.087 N 
HETATM   10  H           1     177.668 184.779 269.680  0.00  0.00     0.316 HD
BRANCH   9  11
HETATM   11  C           1     177.388 184.678 267.681  0.00  0.00     0.270 C 
BRANCH  11  12
HETATM   12  C           1     176.488 183.899 266.732  0.00  0.00     0.034 C 
BRANCH  12  13
HETATM   13  C           1     177.258 183.560 265.462  0.00  0.00    -0.010 C 
HETATM   14  C           1     177.418 182.046 265.365  0.00  0.00     0.035 C 
HETATM   15  C           1     178.013 181.639 264.017  0.00  0.00     0.272 C 
HETATM   16  N           1     177.219 182.158 262.902  0.00  0.00     0.088 N 
HETATM   17  C           1     177.125 183.618 262.947  0.00  0.00     0.272 C 
HETATM   18  C           1     176.498 184.097 264.255  0.00  0.00     0.035 C 
BRANCH  16  19
HETATM   19  C           1     177.933 181.802 261.706  0.00  0.00     0.268 C 
HETATM   20  C           1     178.939 182.896 261.370  0.00  0.00     0.037 C 
ENDBRANCH  16  19
ENDBRANCH  12  13
ENDBRANCH  11  12
ENDBRANCH   9  11
ENDBRANCH   8   9
ENDBRANCH   6   8
BRANCH   5  21
HETATM   21  S           1     173.522 185.613 268.572  0.00  0.00    -0.107 SA
BRANCH  21  22
HETATM   22  C           1     174.476 186.999 267.890  0.00  0.00     0.122 C 
BRANCH  22  23
HETATM   23  C           1     173.567 188.167 267.664  0.00  0.00    -0.049 A 
HETATM   24  C           1     173.844 189.394 268.266  0.00  0.00     0.008 A 
HETATM   25  C           1     172.998 190.482 268.055  0.00  0.00     0.001 A 
HETATM   26  C           1     171.874 190.343 267.241  0.00  0.00     0.000 A 
HETATM   27  C           1     171.596 189.116 266.638  0.00  0.00     0.001 A 
HETATM   28  C           1     172.443 188.028 266.850  0.00  0.00     0.008 A 
ENDBRANCH  22  23
ENDBRANCH  21  22
ENDBRANCH   5  21
BRANCH   1  29
HETATM   29  C           1     176.252 185.758 273.777  0.00  0.00     0.014 A 
HETATM   30  C           1     175.611 185.247 274.906  0.00  0.00     0.130 A 
HETATM   31  F           1     174.410 184.708 274.795  0.00  0.00    -0.205 F 
HETATM   32  C           1     176.239 185.302 276.150  0.00  0.00     0.085 A 
HETATM   33  C           1     177.507 185.871 276.265  0.00  0.00     0.119 A 
HETATM   34  F           1     178.102 185.923 277.443  0.00  0.00    -0.206 F 
HETATM   35  C           1     178.148 186.382 275.137  0.00  0.00     0.043 A 
HETATM   36  C           1     177.520 186.326 273.893  0.00  0.00     0.018 A 
ENDBRANCH   1  29
TORSDOF 10
ENDMDL
MODEL 5
REMARK VINA RESULT:      -8.2      9.126     15.123
REMARK  10 active torsions:
REMARK  status: ('A' for Active; 'I' for Inactive)
REMARK    1  A    between atoms: C_1  and  C_20 
REMARK    2  A    between atoms: C_5  and  S_28 
REMARK    3  A    between atoms: C_6  and  C_8 
REMARK    4  A    between atoms: C_8  and  N_9 
REMARK    5  A    between atoms: N_9  and  C_10 
REMARK    6  A    between atoms: C_10  and  C_11 
REMARK    7  A    between atoms: C_11  and  C_12 
REMARK    8  A    between atoms: N_15  and  C_18 
REMARK    9  A    between atoms: S_28  and  C_35 
REMARK   10  A    between atoms: C_29  and  C_35 
ROOT
HETATM    1  C           1     175.684 185.791 272.675  0.00  0.00    -0.007 A 
HETATM    2  C           1     174.650 186.676 272.413  0.00  0.00     0.101 A 
HETATM    3  N           1     173.981 186.724 271.241  0.00  0.00    -0.359 N 
ATOM      4  HN          1     173.225 187.390 271.082  1.00  0.00     0.166 HD
HETATM    5  C           1     174.364 185.846 270.288  0.00  0.00     0.077 A 
HETATM    6  C           1     175.385 184.925 270.455  0.00  0.00     0.004 A 
HETATM    7  C           1     176.056 184.899 271.674  0.00  0.00     0.025 A 
ENDROOT
BRANCH   6   8
HETATM    8  C           1     175.757 183.981 269.354  0.00  0.00     0.307 C 
BRANCH   8   9
HETATM    9  N           1     177.113 184.230 268.946  0.00  0.00     0.087 N 
HETATM   10  H           1     177.553 184.872 269.605  0.00  0.00     0.316 HD
BRANCH   9  11
HETATM   11  C           1     177.072 184.836 267.642  0.00  0.00     0.270 C 
BRANCH  11  12
HETATM   12  C           1     177.391 183.789 266.584  0.00  0.00     0.034 C 
BRANCH  12  13
HETATM   13  C           1     176.247 183.714 265.581  0.00  0.00    -0.010 C 
HETATM   14  C           1     175.355 184.940 265.746  0.00  0.00     0.035 C 
HETATM   15  C           1     174.305 185.013 264.638  0.00  0.00     0.272 C 
HETATM   16  N           1     174.923 184.986 263.312  0.00  0.00     0.088 N 
HETATM   17  C           1     175.720 183.773 263.118  0.00  0.00     0.272 C 
HETATM   18  C           1     176.821 183.655 264.169  0.00  0.00     0.035 C 
BRANCH  16  19
HETATM   19  C           1     173.838 184.951 262.369  0.00  0.00     0.268 C 
HETATM   20  C           1     172.609 184.341 263.030  0.00  0.00     0.037 C 
ENDBRANCH  16  19
ENDBRANCH  12  13
ENDBRANCH  11  12
ENDBRANCH   9  11
ENDBRANCH   8   9
ENDBRANCH   6   8
BRANCH   5  21
HETATM   21  S           1     173.490 185.876 268.698  0.00  0.00    -0.107 SA
BRANCH  21  22
HETATM   22  C           1     174.265 187.427 268.157  0.00  0.00     0.122 C 
BRANCH  22  23
HETATM   23  C           1     173.207 188.373 267.681  0.00  0.00    -0.049 A 
HETATM   24  C           1     173.262 189.719 268.041  0.00  0.00     0.008 A 
HETATM   25  C           1     172.277 190.601 267.596  0.00  0.00     0.001 A 
HETATM   26  C           1     171.238 190.136 266.790  0.00  0.00     0.000 A 
HETATM   27  C           1     171.184 188.790 266.428  0.00  0.00     0.001 A 
HETATM   28  C           1     172.169 187.909 266.874  0.00  0.00     0.008 A 
ENDBRANCH  22  23
ENDBRANCH  21  22
ENDBRANCH   5  21
BRANCH   1  29
HETATM   29  C           1     176.308 185.794 273.857  0.00  0.00     0.014 A 
HETATM   30  C           1     175.690 185.229 274.973  0.00  0.00     0.130 A 
HETATM   31  F           1     174.490 184.690 274.861  0.00  0.00    -0.205 F 
HETATM   32  C           1     176.341 185.232 276.207  0.00  0.00     0.085 A 
HETATM   33  C           1     177.609 185.801 276.325  0.00  0.00     0.119 A 
HETATM   34  F           1     178.225 185.803 277.492  0.00  0.00    -0.206 F 
HETATM   35  C           1     178.227 186.366 275.209  0.00  0.00     0.043 A 
HETATM   36  C           1     177.576 186.363 273.975  0.00  0.00     0.018 A 
ENDBRANCH   1  29
TORSDOF 10
ENDMDL
MODEL 6
REMARK VINA RESULT:      -8.2      6.716     10.827
REMARK  10 active torsions:
REMARK  status: ('A' for Active; 'I' for Inactive)
REMARK    1  A    between atoms: C_1  and  C_20 
REMARK    2  A    between atoms: C_5  and  S_28 
REMARK    3  A    between atoms: C_6  and  C_8 
REMARK    4  A    between atoms: C_8  and  N_9 
REMARK    5  A    between atoms: N_9  and  C_10 
REMARK    6  A    between atoms: C_10  and  C_11 
REMARK    7  A    between atoms: C_11  and  C_12 
REMARK    8  A    between atoms: N_15  and  C_18 
REMARK    9  A    between atoms: S_28  and  C_35 
REMARK   10  A    between atoms: C_29  and  C_35 
ROOT
HETATM    1  C           1     175.563 185.619 272.539  0.00  0.00    -0.007 A 
HETATM    2  C           1     176.184 184.925 271.512  0.00  0.00     0.101 A 
HETATM    3  N           1     175.657 184.780 270.276  0.00  0.00    -0.359 N 
ATOM      4  HN          1     176.142 184.262 269.545  1.00  0.00     0.166 HD
HETATM    5  C           1     174.456 185.358 270.059  0.00  0.00     0.077 A 
HETATM    6  C           1     173.759 186.071 271.020  0.00  0.00     0.004 A 
HETATM    7  C           1     174.327 186.202 272.284  0.00  0.00     0.025 A 
ENDROOT
BRANCH   6   8
HETATM    8  C           1     172.429 186.685 270.708  0.00  0.00     0.307 C 
BRANCH   8   9
HETATM    9  N           1     172.405 188.043 271.180  0.00  0.00     0.087 N 
HETATM   10  H           1     173.249 188.229 271.721  0.00  0.00     0.316 HD
BRANCH   9  11
HETATM   11  C           1     171.251 188.192 272.025  0.00  0.00     0.270 C 
BRANCH  11  12
HETATM   12  C           1     171.663 188.843 273.338  0.00  0.00     0.034 C 
BRANCH  12  13
HETATM   13  C           1     171.616 187.809 274.456  0.00  0.00    -0.010 C 
HETATM   14  C           1     172.809 188.021 275.384  0.00  0.00     0.035 C 
HETATM   15  C           1     172.705 187.138 276.627  0.00  0.00     0.272 C 
HETATM   16  N           1     171.442 187.354 277.334  0.00  0.00     0.088 N 
HETATM   17  C           1     170.292 187.079 276.472  0.00  0.00     0.272 C 
HETATM   18  C           1     170.307 187.959 275.223  0.00  0.00     0.035 C 
BRANCH  16  19
HETATM   19  C           1     171.421 186.400 278.410  0.00  0.00     0.268 C 
HETATM   20  C           1     171.847 185.035 277.886  0.00  0.00     0.037 C 
ENDBRANCH  16  19
ENDBRANCH  12  13
ENDBRANCH  11  12
ENDBRANCH   9  11
ENDBRANCH   8   9
ENDBRANCH   6   8
BRANCH   5  21
HETATM   21  S           1     173.713 185.190 268.412  0.00  0.00    -0.107 SA
BRANCH  21  22
HETATM   22  C           1     174.803 186.429 267.655  0.00  0.00     0.122 C 
BRANCH  22  23
HETATM   23  C           1     174.103 187.752 267.615  0.00  0.00    -0.049 A 
HETATM   24  C           1     174.725 188.886 268.134  0.00  0.00     0.008 A 
HETATM   25  C           1     174.073 190.119 268.095  0.00  0.00     0.001 A 
HETATM   26  C           1     172.799 190.216 267.537  0.00  0.00     0.000 A 
HETATM   27  C           1     172.176 189.081 267.016  0.00  0.00     0.001 A 
HETATM   28  C           1     172.829 187.849 267.055  0.00  0.00     0.008 A 
ENDBRANCH  22  23
ENDBRANCH  21  22
ENDBRANCH   5  21
BRANCH   1  29
HETATM   29  C           1     176.137 185.725 273.741  0.00  0.00     0.014 A 
HETATM   30  C           1     175.465 185.274 274.877  0.00  0.00     0.130 A 
HETATM   31  F           1     174.261 184.742 274.764  0.00  0.00    -0.205 F 
HETATM   32  C           1     176.064 185.384 276.132  0.00  0.00     0.085 A 
HETATM   33  C           1     177.335 185.945 276.251  0.00  0.00     0.119 A 
HETATM   34  F           1     177.903 186.049 277.438  0.00  0.00    -0.206 F 
HETATM   35  C           1     178.008 186.396 275.115  0.00  0.00     0.043 A 
HETATM   36  C           1     177.409 186.286 273.860  0.00  0.00     0.018 A 
ENDBRANCH   1  29
TORSDOF 10
ENDMDL
MODEL 7
REMARK VINA RESULT:      -8.1      3.029      6.158
REMARK  10 active torsions:
REMARK  status: ('A' for Active; 'I' for Inactive)
REMARK    1  A    between atoms: C_1  and  C_20 
REMARK    2  A    between atoms: C_5  and  S_28 
REMARK    3  A    between atoms: C_6  and  C_8 
REMARK    4  A    between atoms: C_8  and  N_9 
REMARK    5  A    between atoms: N_9  and  C_10 
REMARK    6  A    between atoms: C_10  and  C_11 
REMARK    7  A    between atoms: C_11  and  C_12 
REMARK    8  A    between atoms: N_15  and  C_18 
REMARK    9  A    between atoms: S_28  and  C_35 
REMARK   10  A    between atoms: C_29  and  C_35 
ROOT
HETATM    1  C           1     173.484 186.455 281.069  0.00  0.00    -0.007 A 
HETATM    2  C           1     174.573 186.969 280.382  0.00  0.00     0.101 A 
HETATM    3  N           1     174.607 187.128 279.041  0.00  0.00    -0.359 N 
ATOM      4  HN          1     175.426 187.509 278.567  1.00  0.00     0.166 HD
HETATM    5  C           1     173.502 186.759 278.358  0.00  0.00     0.077 A 
HETATM    6  C           1     172.366 186.237 278.956  0.00  0.00     0.004 A 
HETATM    7  C           1     172.361 186.083 280.338  0.00  0.00     0.025 A 
ENDROOT
BRANCH   6   8
HETATM    8  C           1     171.176 185.847 278.135  0.00  0.00     0.307 C 
BRANCH   8   9
HETATM    9  N           1     170.021 186.575 278.588  0.00  0.00     0.087 N 
HETATM   10  H           1     169.179 186.151 278.199  0.00  0.00     0.316 HD
BRANCH   9  11
HETATM   11  C           1     170.142 187.926 278.110  0.00  0.00     0.270 C 
BRANCH  11  12
HETATM   12  C           1     168.999 188.765 278.665  0.00  0.00     0.034 C 
BRANCH  12  13
HETATM   13  C           1     169.563 189.899 279.510  0.00  0.00    -0.010 C 
HETATM   14  C           1     168.564 190.250 280.608  0.00  0.00     0.035 C 
HETATM   15  C           1     169.161 191.247 281.601  0.00  0.00     0.272 C 
HETATM   16  N           1     170.416 190.752 282.168  0.00  0.00     0.088 N 
HETATM   17  C           1     171.407 190.485 281.124  0.00  0.00     0.272 C 
HETATM   18  C           1     170.893 189.461 280.115  0.00  0.00     0.035 C 
BRANCH  16  19
HETATM   19  C           1     170.925 191.814 282.993  0.00  0.00     0.268 C 
HETATM   20  C           1     170.618 193.156 282.341  0.00  0.00     0.037 C 
ENDBRANCH  16  19
ENDBRANCH  12  13
ENDBRANCH  11  12
ENDBRANCH   9  11
ENDBRANCH   8   9
ENDBRANCH   6   8
BRANCH   5  21
HETATM   21  S           1     173.505 186.958 276.554  0.00  0.00    -0.107 SA
BRANCH  21  22
HETATM   22  C           1     174.396 185.404 276.257  0.00  0.00     0.122 C 
BRANCH  22  23
HETATM   23  C           1     175.761 185.706 275.722  0.00  0.00    -0.049 A 
HETATM   24  C           1     176.871 185.640 276.563  0.00  0.00     0.008 A 
HETATM   25  C           1     178.142 185.920 276.064  0.00  0.00     0.001 A 
HETATM   26  C           1     178.304 186.266 274.723  0.00  0.00     0.000 A 
HETATM   27  C           1     177.194 186.331 273.880  0.00  0.00     0.001 A 
HETATM   28  C           1     175.922 186.050 274.380  0.00  0.00     0.008 A 
ENDBRANCH  22  23
ENDBRANCH  21  22
ENDBRANCH   5  21
BRANCH   1  29
HETATM   29  C           1     173.513 186.321 282.399  0.00  0.00     0.014 A 
HETATM   30  C           1     174.045 185.166 282.972  0.00  0.00     0.130 A 
HETATM   31  F           1     174.520 184.205 282.201  0.00  0.00    -0.205 F 
HETATM   32  C           1     174.076 185.026 284.360  0.00  0.00     0.085 A 
HETATM   33  C           1     173.574 186.042 285.174  0.00  0.00     0.119 A 
HETATM   34  F           1     173.603 185.910 286.487  0.00  0.00    -0.206 F 
HETATM   35  C           1     173.042 187.197 284.601  0.00  0.00     0.043 A 
HETATM   36  C           1     173.011 187.337 283.213  0.00  0.00     0.018 A 
ENDBRANCH   1  29
TORSDOF 10
ENDMDL
MODEL 8
REMARK VINA RESULT:      -8.1      8.900     11.649
REMARK  10 active torsions:
REMARK  status: ('A' for Active; 'I' for Inactive)
REMARK    1  A    between atoms: C_1  and  C_20 
REMARK    2  A    between atoms: C_5  and  S_28 
REMARK    3  A    between atoms: C_6  and  C_8 
REMARK    4  A    between atoms: C_8  and  N_9 
REMARK    5  A    between atoms: N_9  and  C_10 
REMARK    6  A    between atoms: C_10  and  C_11 
REMARK    7  A    between atoms: C_11  and  C_12 
REMARK    8  A    between atoms: N_15  and  C_18 
REMARK    9  A    between atoms: S_28  and  C_35 
REMARK   10  A    between atoms: C_29  and  C_35 
ROOT
HETATM    1  C           1     174.240 189.585 269.470  0.00  0.00    -0.007 A 
HETATM    2  C           1     174.713 189.564 268.167  0.00  0.00     0.101 A 
HETATM    3  N           1     174.756 188.452 267.401  0.00  0.00    -0.359 N 
ATOM      4  HN          1     175.112 188.473 266.446  1.00  0.00     0.166 HD
HETATM    5  C           1     174.303 187.311 267.965  0.00  0.00     0.077 A 
HETATM    6  C           1     173.811 187.233 269.257  0.00  0.00     0.004 A 
HETATM    7  C           1     173.781 188.394 270.022  0.00  0.00     0.025 A 
ENDROOT
BRANCH   6   8
HETATM    8  C           1     173.326 185.931 269.817  0.00  0.00     0.307 C 
BRANCH   8   9
HETATM    9  N           1     172.440 186.185 270.921  0.00  0.00     0.087 N 
HETATM   10  H           1     172.571 187.142 271.248  0.00  0.00     0.316 HD
BRANCH   9  11
HETATM   11  C           1     172.781 185.267 271.975  0.00  0.00     0.270 C 
BRANCH  11  12
HETATM   12  C           1     174.117 184.608 271.662  0.00  0.00     0.034 C 
BRANCH  12  13
HETATM   13  C           1     175.083 184.841 272.817  0.00  0.00    -0.010 C 
HETATM   14  C           1     176.076 185.931 272.426  0.00  0.00     0.035 C 
HETATM   15  C           1     176.944 186.340 273.616  0.00  0.00     0.272 C 
HETATM   16  N           1     176.128 186.755 274.758  0.00  0.00     0.088 N 
HETATM   17  C           1     175.225 185.685 275.187  0.00  0.00     0.272 C 
HETATM   18  C           1     174.295 185.253 274.055  0.00  0.00     0.035 C 
BRANCH  16  19
HETATM   19  C           1     177.049 187.007 275.833  0.00  0.00     0.268 C 
HETATM   20  C           1     177.675 185.695 276.286  0.00  0.00     0.037 C 
ENDBRANCH  16  19
ENDBRANCH  12  13
ENDBRANCH  11  12
ENDBRANCH   9  11
ENDBRANCH   8   9
ENDBRANCH   6   8
BRANCH   5  21
HETATM   21  S           1     174.341 185.794 266.970  0.00  0.00    -0.107 SA
BRANCH  21  22
HETATM   22  C           1     176.073 185.425 267.368  0.00  0.00     0.122 C 
BRANCH  22  23
HETATM   23  C           1     176.134 184.256 268.301  0.00  0.00    -0.049 A 
HETATM   24  C           1     175.259 183.184 268.134  0.00  0.00     0.008 A 
HETATM   25  C           1     175.316 182.095 269.003  0.00  0.00     0.001 A 
HETATM   26  C           1     176.249 182.078 270.040  0.00  0.00     0.000 A 
HETATM   27  C           1     177.126 183.151 270.207  0.00  0.00     0.001 A 
HETATM   28  C           1     177.068 184.240 269.337  0.00  0.00     0.008 A 
ENDBRANCH  22  23
ENDBRANCH  21  22
ENDBRANCH   5  21
BRANCH   1  29
HETATM   29  C           1     174.225 190.721 270.176  0.00  0.00     0.014 A 
HETATM   30  C           1     173.010 191.315 270.516  0.00  0.00     0.130 A 
HETATM   31  F           1     171.874 190.756 270.140  0.00  0.00    -0.205 F 
HETATM   32  C           1     172.994 192.499 271.253  0.00  0.00     0.085 A 
HETATM   33  C           1     174.194 193.088 271.650  0.00  0.00     0.119 A 
HETATM   34  F           1     174.180 194.209 272.348  0.00  0.00    -0.206 F 
HETATM   35  C           1     175.410 192.494 271.311  0.00  0.00     0.043 A 
HETATM   36  C           1     175.425 191.310 270.573  0.00  0.00     0.018 A 
ENDBRANCH   1  29
TORSDOF 10
ENDMDL
MODEL 9
REMARK VINA RESULT:      -8.0      8.963     12.802
REMARK  10 active torsions:
REMARK  status: ('A' for Active; 'I' for Inactive)
REMARK    1  A    between atoms: C_1  and  C_20 
REMARK    2  A    between atoms: C_5  and  S_28 
REMARK    3  A    between atoms: C_6  and  C_8 
REMARK    4  A    between atoms: C_8  and  N_9 
REMARK    5  A    between atoms: N_9  and  C_10 
REMARK    6  A    between atoms: C_10  and  C_11 
REMARK    7  A    between atoms: C_11  and  C_12 
REMARK    8  A    between atoms: N_15  and  C_18 
REMARK    9  A    between atoms: S_28  and  C_35 
REMARK   10  A    between atoms: C_29  and  C_35 
ROOT
HETATM    1  C           1     174.570 185.623 273.415  0.00  0.00    -0.007 A 
HETATM    2  C           1     173.465 186.428 273.644  0.00  0.00     0.101 A 
HETATM    3  N           1     172.397 186.490 272.820  0.00  0.00    -0.359 N 
ATOM      4  HN          1     171.601 187.095 273.020  1.00  0.00     0.166 HD
HETATM    5  C           1     172.436 185.711 271.717  0.00  0.00     0.077 A 
HETATM    6  C           1     173.495 184.875 271.402  0.00  0.00     0.004 A 
HETATM    7  C           1     174.581 184.832 272.270  0.00  0.00     0.025 A 
ENDROOT
BRANCH   6   8
HETATM    8  C           1     173.470 184.038 270.160  0.00  0.00     0.307 C 
BRANCH   8   9
HETATM    9  N           1     174.549 184.432 269.296  0.00  0.00     0.087 N 
HETATM   10  H           1     175.333 184.761 269.860  0.00  0.00     0.316 HD
BRANCH   9  11
HETATM   11  C           1     174.074 185.504 268.464  0.00  0.00     0.270 C 
BRANCH  11  12
HETATM   12  C           1     175.157 186.567 268.337  0.00  0.00     0.034 C 
BRANCH  12  13
HETATM   13  C           1     174.661 187.875 268.939  0.00  0.00    -0.010 C 
HETATM   14  C           1     175.127 187.967 270.389  0.00  0.00     0.035 C 
HETATM   15  C           1     174.823 189.343 270.981  0.00  0.00     0.272 C 
HETATM   16  N           1     175.404 190.415 270.172  0.00  0.00     0.088 N 
HETATM   17  C           1     174.901 190.379 268.797  0.00  0.00     0.272 C 
HETATM   18  C           1     175.208 189.043 268.125  0.00  0.00     0.035 C 
BRANCH  16  19
HETATM   19  C           1     174.961 191.646 270.768  0.00  0.00     0.268 C 
HETATM   20  C           1     173.439 191.710 270.732  0.00  0.00     0.037 C 
ENDBRANCH  16  19
ENDBRANCH  12  13
ENDBRANCH  11  12
ENDBRANCH   9  11
ENDBRANCH   8   9
ENDBRANCH   6   8
BRANCH   5  21
HETATM   21  S           1     171.020 185.763 270.583  0.00  0.00    -0.107 SA
BRANCH  21  22
HETATM   22  C           1     170.916 187.576 270.595  0.00  0.00     0.122 C 
BRANCH  22  23
HETATM   23  C           1     171.123 188.097 269.208  0.00  0.00    -0.049 A 
HETATM   24  C           1     171.303 189.463 268.996  0.00  0.00     0.008 A 
HETATM   25  C           1     171.497 189.949 267.703  0.00  0.00     0.001 A 
HETATM   26  C           1     171.511 189.068 266.621  0.00  0.00     0.000 A 
HETATM   27  C           1     171.331 187.701 266.833  0.00  0.00     0.001 A 
HETATM   28  C           1     171.137 187.216 268.127  0.00  0.00     0.008 A 
ENDBRANCH  22  23
ENDBRANCH  21  22
ENDBRANCH   5  21
BRANCH   1  29
HETATM   29  C           1     175.598 185.607 274.270  0.00  0.00     0.014 A 
HETATM   30  C           1     176.777 186.281 273.955  0.00  0.00     0.130 A 
HETATM   31  F           1     176.879 186.936 272.813  0.00  0.00    -0.205 F 
HETATM   32  C           1     177.849 186.265 274.848  0.00  0.00     0.085 A 
HETATM   33  C           1     177.741 185.574 276.054  0.00  0.00     0.119 A 
HETATM   34  F           1     178.755 185.559 276.899  0.00  0.00    -0.206 F 
HETATM   35  C           1     176.561 184.899 276.369  0.00  0.00     0.043 A 
HETATM   36  C           1     175.490 184.915 275.476  0.00  0.00     0.018 A 
ENDBRANCH   1  29
TORSDOF 10
ENDMDL
