MODEL 1
REMARK VINA RESULT:      -6.3      0.000      0.000
REMARK  10 active torsions:
REMARK  status: ('A' for Active; 'I' for Inactive)
REMARK    1  A    between atoms: C_4  and  S_16 
REMARK    2  A    between atoms: C_5  and  C_7 
REMARK    3  A    between atoms: C_7  and  N_8 
REMARK    4  A    between atoms: N_8  and  C_9 
REMARK    5  A    between atoms: C_9  and  C_10 
REMARK    6  A    between atoms: C_10  and  C_11 
REMARK    7  A    between atoms: C_11  and  C_12 
REMARK    8  A    between atoms: C_12  and  N_13 
REMARK    9  A    between atoms: S_16  and  C_23 
REMARK   10  A    between atoms: C_17  and  C_23 
ROOT
HETATM    1  C           1     175.189 185.030 285.016  0.00  0.00     0.020 A 
HETATM    2  C           1     174.848 184.468 286.236  0.00  0.00     0.118 A 
HETATM    3  N           1     173.807 184.883 286.991  0.00  0.00    -0.254 NA
HETATM    4  C           1     173.074 185.907 286.500  0.00  0.00     0.101 A 
HETATM    5  C           1     173.337 186.533 285.292  0.00  0.00     0.005 A 
HETATM    6  C           1     174.416 186.084 284.539  0.00  0.00     0.013 A 
ENDROOT
BRANCH   5   7
HETATM    7  C           1     172.482 187.665 284.811  0.00  0.00     0.308 C 
BRANCH   7   8
HETATM    8  N           1     173.307 188.650 284.168  0.00  0.00     0.087 N 
HETATM    9  H           1     173.201 189.545 284.643  0.00  0.00     0.316 HD
BRANCH   8  10
HETATM   10  C           1     172.860 188.774 282.807  0.00  0.00     0.270 C 
BRANCH  10  11
HETATM   11  C           1     174.062 188.757 281.872  0.00  0.00     0.032 C 
BRANCH  11  12
HETATM   12  C           1     173.904 187.631 280.859  0.00  0.00     0.032 C 
BRANCH  12  13
HETATM   13  C           1     172.684 186.793 281.216  0.00  0.00     0.271 C 
BRANCH  13  14
HETATM   14  N           1     171.975 186.440 280.015  0.00  0.00     0.080 N 
HETATM   15  C           1     171.616 187.661 279.345  0.00  0.00     0.309 C 
HETATM   16  C           1     172.888 185.726 279.164  0.00  0.00     0.309 C 
ENDBRANCH  13  14
ENDBRANCH  12  13
ENDBRANCH  11  12
ENDBRANCH  10  11
ENDBRANCH   8  10
ENDBRANCH   7   8
ENDBRANCH   5   7
BRANCH   4  17
HETATM   17  S           1     171.666 186.497 287.482  0.00  0.00    -0.105 SA
BRANCH  17  18
HETATM   18  C           1     172.701 187.464 288.618  0.00  0.00     0.122 C 
BRANCH  18  19
HETATM   19  C           1     172.435 187.032 290.025  0.00  0.00    -0.049 A 
HETATM   20  C           1     172.820 185.761 290.450  0.00  0.00     0.008 A 
HETATM   21  C           1     172.572 185.358 291.762  0.00  0.00     0.001 A 
HETATM   22  C           1     171.939 186.227 292.651  0.00  0.00     0.000 A 
HETATM   23  C           1     171.553 187.499 292.226  0.00  0.00     0.001 A 
HETATM   24  C           1     171.801 187.901 290.914  0.00  0.00     0.008 A 
ENDBRANCH  18  19
ENDBRANCH  17  18
ENDBRANCH   4  17
TORSDOF 10
ENDMDL
MODEL 2
REMARK VINA RESULT:      -6.3      2.657      4.687
REMARK  10 active torsions:
REMARK  status: ('A' for Active; 'I' for Inactive)
REMARK    1  A    between atoms: C_4  and  S_16 
REMARK    2  A    between atoms: C_5  and  C_7 
REMARK    3  A    between atoms: C_7  and  N_8 
REMARK    4  A    between atoms: N_8  and  C_9 
REMARK    5  A    between atoms: C_9  and  C_10 
REMARK    6  A    between atoms: C_10  and  C_11 
REMARK    7  A    between atoms: C_11  and  C_12 
REMARK    8  A    between atoms: C_12  and  N_13 
REMARK    9  A    between atoms: S_16  and  C_23 
REMARK   10  A    between atoms: C_17  and  C_23 
ROOT
HETATM    1  C           1     169.496 188.887 286.772  0.00  0.00     0.020 A 
HETATM    2  C           1     168.366 188.445 287.443  0.00  0.00     0.118 A 
HETATM    3  N           1     168.297 187.272 288.108  0.00  0.00    -0.254 NA
HETATM    4  C           1     169.410 186.506 288.100  0.00  0.00     0.101 A 
HETATM    5  C           1     170.586 186.861 287.459  0.00  0.00     0.005 A 
HETATM    6  C           1     170.625 188.075 286.782  0.00  0.00     0.013 A 
ENDROOT
BRANCH   5   7
HETATM    7  C           1     171.782 185.960 287.492  0.00  0.00     0.308 C 
BRANCH   7   8
HETATM    8  N           1     172.902 186.670 288.046  0.00  0.00     0.087 N 
HETATM    9  H           1     173.050 187.533 287.524  0.00  0.00     0.316 HD
BRANCH   8  10
HETATM   10  C           1     174.060 185.828 287.918  0.00  0.00     0.270 C 
BRANCH  10  11
HETATM   11  C           1     173.766 184.705 286.932  0.00  0.00     0.032 C 
BRANCH  11  12
HETATM   12  C           1     174.964 184.509 286.011  0.00  0.00     0.032 C 
BRANCH  12  13
HETATM   13  C           1     174.938 185.562 284.912  0.00  0.00     0.271 C 
BRANCH  13  14
HETATM   14  N           1     173.611 185.652 284.364  0.00  0.00     0.080 N 
HETATM   15  C           1     173.326 187.042 284.134  0.00  0.00     0.309 C 
HETATM   16  C           1     173.621 184.990 283.087  0.00  0.00     0.309 C 
ENDBRANCH  13  14
ENDBRANCH  12  13
ENDBRANCH  11  12
ENDBRANCH  10  11
ENDBRANCH   8  10
ENDBRANCH   7   8
ENDBRANCH   5   7
BRANCH   4  17
HETATM   17  S           1     169.361 184.919 288.981  0.00  0.00    -0.105 SA
BRANCH  17  18
HETATM   18  C           1     168.767 185.654 290.531  0.00  0.00     0.122 C 
BRANCH  18  19
HETATM   19  C           1     169.934 185.981 291.408  0.00  0.00    -0.049 A 
HETATM   20  C           1     169.773 186.845 292.491  0.00  0.00     0.008 A 
HETATM   21  C           1     170.861 187.150 293.308  0.00  0.00     0.001 A 
HETATM   22  C           1     172.111 186.592 293.044  0.00  0.00     0.000 A 
HETATM   23  C           1     172.273 185.728 291.960  0.00  0.00     0.001 A 
HETATM   24  C           1     171.185 185.423 291.142  0.00  0.00     0.008 A 
ENDBRANCH  18  19
ENDBRANCH  17  18
ENDBRANCH   4  17
TORSDOF 10
ENDMDL
MODEL 3
REMARK VINA RESULT:      -6.2      3.183      5.561
REMARK  10 active torsions:
REMARK  status: ('A' for Active; 'I' for Inactive)
REMARK    1  A    between atoms: C_4  and  S_16 
REMARK    2  A    between atoms: C_5  and  C_7 
REMARK    3  A    between atoms: C_7  and  N_8 
REMARK    4  A    between atoms: N_8  and  C_9 
REMARK    5  A    between atoms: C_9  and  C_10 
REMARK    6  A    between atoms: C_10  and  C_11 
REMARK    7  A    between atoms: C_11  and  C_12 
REMARK    8  A    between atoms: C_12  and  N_13 
REMARK    9  A    between atoms: S_16  and  C_23 
REMARK   10  A    between atoms: C_17  and  C_23 
ROOT
HETATM    1  C           1     167.855 188.233 287.741  0.00  0.00     0.020 A 
HETATM    2  C           1     167.876 188.968 288.916  0.00  0.00     0.118 A 
HETATM    3  N           1     168.229 188.458 290.116  0.00  0.00    -0.254 NA
HETATM    4  C           1     168.576 187.152 290.140  0.00  0.00     0.101 A 
HETATM    5  C           1     168.586 186.337 289.020  0.00  0.00     0.005 A 
HETATM    6  C           1     168.217 186.891 287.799  0.00  0.00     0.013 A 
ENDROOT
BRANCH   5   7
HETATM    7  C           1     168.982 184.896 289.122  0.00  0.00     0.308 C 
BRANCH   7   8
HETATM    8  N           1     169.617 184.486 287.899  0.00  0.00     0.087 N 
HETATM    9  H           1     169.530 183.475 287.793  0.00  0.00     0.316 HD
BRANCH   8  10
HETATM   10  C           1     171.008 184.840 287.988  0.00  0.00     0.270 C 
BRANCH  10  11
HETATM   11  C           1     171.612 184.882 286.591  0.00  0.00     0.032 C 
BRANCH  11  12
HETATM   12  C           1     171.984 186.316 286.239  0.00  0.00     0.032 C 
BRANCH  12  13
HETATM   13  C           1     173.442 186.371 285.802  0.00  0.00     0.271 C 
BRANCH  13  14
HETATM   14  N           1     173.536 187.030 284.527  0.00  0.00     0.080 N 
HETATM   15  C           1     173.300 186.045 283.507  0.00  0.00     0.309 C 
HETATM   16  C           1     172.473 187.997 284.456  0.00  0.00     0.309 C 
ENDBRANCH  13  14
ENDBRANCH  12  13
ENDBRANCH  11  12
ENDBRANCH  10  11
ENDBRANCH   8  10
ENDBRANCH   7   8
ENDBRANCH   5   7
BRANCH   4  17
HETATM   17  S           1     169.056 186.425 291.732  0.00  0.00    -0.105 SA
BRANCH  17  18
HETATM   18  C           1     170.489 187.520 291.943  0.00  0.00     0.122 C 
BRANCH  18  19
HETATM   19  C           1     171.686 186.907 291.286  0.00  0.00    -0.049 A 
HETATM   20  C           1     172.293 187.547 290.205  0.00  0.00     0.008 A 
HETATM   21  C           1     173.408 186.976 289.593  0.00  0.00     0.001 A 
HETATM   22  C           1     173.918 185.765 290.061  0.00  0.00     0.000 A 
HETATM   23  C           1     173.311 185.125 291.142  0.00  0.00     0.001 A 
HETATM   24  C           1     172.195 185.696 291.754  0.00  0.00     0.008 A 
ENDBRANCH  18  19
ENDBRANCH  17  18
ENDBRANCH   4  17
TORSDOF 10
ENDMDL
MODEL 4
REMARK VINA RESULT:      -6.2      3.276      5.454
REMARK  10 active torsions:
REMARK  status: ('A' for Active; 'I' for Inactive)
REMARK    1  A    between atoms: C_4  and  S_16 
REMARK    2  A    between atoms: C_5  and  C_7 
REMARK    3  A    between atoms: C_7  and  N_8 
REMARK    4  A    between atoms: N_8  and  C_9 
REMARK    5  A    between atoms: C_9  and  C_10 
REMARK    6  A    between atoms: C_10  and  C_11 
REMARK    7  A    between atoms: C_11  and  C_12 
REMARK    8  A    between atoms: C_12  and  N_13 
REMARK    9  A    between atoms: S_16  and  C_23 
REMARK   10  A    between atoms: C_17  and  C_23 
ROOT
HETATM    1  C           1     172.753 189.597 282.512  0.00  0.00     0.020 A 
HETATM    2  C           1     173.624 189.307 283.550  0.00  0.00     0.118 A 
HETATM    3  N           1     174.473 188.257 283.549  0.00  0.00    -0.254 NA
HETATM    4  C           1     174.448 187.461 282.457  0.00  0.00     0.101 A 
HETATM    5  C           1     173.614 187.668 281.371  0.00  0.00     0.005 A 
HETATM    6  C           1     172.750 188.758 281.403  0.00  0.00     0.013 A 
ENDROOT
BRANCH   5   7
HETATM    7  C           1     173.639 186.743 280.193  0.00  0.00     0.308 C 
BRANCH   7   8
HETATM    8  N           1     172.445 185.942 280.186  0.00  0.00     0.087 N 
HETATM    9  H           1     172.698 184.955 280.217  0.00  0.00     0.316 HD
BRANCH   8  10
HETATM   10  C           1     171.741 186.219 278.963  0.00  0.00     0.270 C 
BRANCH  10  11
HETATM   11  C           1     172.245 185.291 277.866  0.00  0.00     0.032 C 
BRANCH  11  12
HETATM   12  C           1     172.538 186.101 276.609  0.00  0.00     0.032 C 
BRANCH  12  13
HETATM   13  C           1     173.995 185.911 276.210  0.00  0.00     0.271 C 
BRANCH  13  14
HETATM   14  N           1     174.758 187.060 276.618  0.00  0.00     0.080 N 
HETATM   15  C           1     176.044 186.594 277.063  0.00  0.00     0.309 C 
HETATM   16  C           1     174.968 187.879 275.455  0.00  0.00     0.309 C 
ENDBRANCH  13  14
ENDBRANCH  12  13
ENDBRANCH  11  12
ENDBRANCH  10  11
ENDBRANCH   8  10
ENDBRANCH   7   8
ENDBRANCH   5   7
BRANCH   4  17
HETATM   17  S           1     175.572 186.037 282.412  0.00  0.00    -0.105 SA
BRANCH  17  18
HETATM   18  C           1     174.263 184.831 282.770  0.00  0.00     0.122 C 
BRANCH  18  19
HETATM   19  C           1     173.904 184.899 284.221  0.00  0.00    -0.049 A 
HETATM   20  C           1     174.890 184.724 285.193  0.00  0.00     0.008 A 
HETATM   21  C           1     174.556 184.787 286.545  0.00  0.00     0.001 A 
HETATM   22  C           1     173.235 185.025 286.927  0.00  0.00     0.000 A 
HETATM   23  C           1     172.249 185.199 285.956  0.00  0.00     0.001 A 
HETATM   24  C           1     172.584 185.136 284.603  0.00  0.00     0.008 A 
ENDBRANCH  18  19
ENDBRANCH  17  18
ENDBRANCH   4  17
TORSDOF 10
ENDMDL
MODEL 5
REMARK VINA RESULT:      -6.0      4.684      8.019
REMARK  10 active torsions:
REMARK  status: ('A' for Active; 'I' for Inactive)
REMARK    1  A    between atoms: C_4  and  S_16 
REMARK    2  A    between atoms: C_5  and  C_7 
REMARK    3  A    between atoms: C_7  and  N_8 
REMARK    4  A    between atoms: N_8  and  C_9 
REMARK    5  A    between atoms: C_9  and  C_10 
REMARK    6  A    between atoms: C_10  and  C_11 
REMARK    7  A    between atoms: C_11  and  C_12 
REMARK    8  A    between atoms: C_12  and  N_13 
REMARK    9  A    between atoms: S_16  and  C_23 
REMARK   10  A    between atoms: C_17  and  C_23 
ROOT
HETATM    1  C           1     172.042 185.455 277.221  0.00  0.00     0.020 A 
HETATM    2  C           1     171.599 185.636 278.522  0.00  0.00     0.118 A 
HETATM    3  N           1     172.344 186.197 279.499  0.00  0.00    -0.254 NA
HETATM    4  C           1     173.590 186.595 279.156  0.00  0.00     0.101 A 
HETATM    5  C           1     174.120 186.457 277.884  0.00  0.00     0.005 A 
HETATM    6  C           1     173.328 185.875 276.900  0.00  0.00     0.013 A 
ENDROOT
BRANCH   5   7
HETATM    7  C           1     175.511 186.921 277.576  0.00  0.00     0.308 C 
BRANCH   7   8
HETATM    8  N           1     176.122 186.018 276.640  0.00  0.00     0.087 N 
HETATM    9  H           1     176.207 185.095 277.064  0.00  0.00     0.316 HD
BRANCH   8  10
HETATM   10  C           1     177.431 186.528 276.332  0.00  0.00     0.270 C 
BRANCH  10  11
HETATM   11  C           1     177.745 186.271 274.864  0.00  0.00     0.032 C 
BRANCH  11  12
HETATM   12  C           1     176.496 185.761 274.158  0.00  0.00     0.032 C 
BRANCH  12  13
HETATM   13  C           1     176.448 186.321 272.743  0.00  0.00     0.271 C 
BRANCH  13  14
HETATM   14  N           1     175.992 185.300 271.837  0.00  0.00     0.080 N 
HETATM   15  C           1     175.031 184.492 272.538  0.00  0.00     0.309 C 
HETATM   16  C           1     175.309 185.952 270.753  0.00  0.00     0.309 C 
ENDBRANCH  13  14
ENDBRANCH  12  13
ENDBRANCH  11  12
ENDBRANCH  10  11
ENDBRANCH   8  10
ENDBRANCH   7   8
ENDBRANCH   5   7
BRANCH   4  17
HETATM   17  S           1     174.627 187.354 280.438  0.00  0.00    -0.105 SA
BRANCH  17  18
HETATM   18  C           1     173.266 187.497 281.632  0.00  0.00     0.122 C 
BRANCH  18  19
HETATM   19  C           1     173.533 186.604 282.802  0.00  0.00    -0.049 A 
HETATM   20  C           1     174.769 185.971 282.930  0.00  0.00     0.008 A 
HETATM   21  C           1     175.017 185.138 284.021  0.00  0.00     0.001 A 
HETATM   22  C           1     174.029 184.937 284.984  0.00  0.00     0.000 A 
HETATM   23  C           1     172.791 185.570 284.857  0.00  0.00     0.001 A 
HETATM   24  C           1     172.544 186.403 283.765  0.00  0.00     0.008 A 
ENDBRANCH  18  19
ENDBRANCH  17  18
ENDBRANCH   4  17
TORSDOF 10
ENDMDL
MODEL 6
REMARK VINA RESULT:      -6.0      1.523      2.010
REMARK  10 active torsions:
REMARK  status: ('A' for Active; 'I' for Inactive)
REMARK    1  A    between atoms: C_4  and  S_16 
REMARK    2  A    between atoms: C_5  and  C_7 
REMARK    3  A    between atoms: C_7  and  N_8 
REMARK    4  A    between atoms: N_8  and  C_9 
REMARK    5  A    between atoms: C_9  and  C_10 
REMARK    6  A    between atoms: C_10  and  C_11 
REMARK    7  A    between atoms: C_11  and  C_12 
REMARK    8  A    between atoms: C_12  and  N_13 
REMARK    9  A    between atoms: S_16  and  C_23 
REMARK   10  A    between atoms: C_17  and  C_23 
ROOT
HETATM    1  C           1     174.856 185.043 285.729  0.00  0.00     0.020 A 
HETATM    2  C           1     175.125 185.140 287.085  0.00  0.00     0.118 A 
HETATM    3  N           1     174.444 185.942 287.931  0.00  0.00    -0.254 NA
HETATM    4  C           1     173.448 186.682 287.394  0.00  0.00     0.101 A 
HETATM    5  C           1     173.105 186.654 286.053  0.00  0.00     0.005 A 
HETATM    6  C           1     173.825 185.817 285.206  0.00  0.00     0.013 A 
ENDROOT
BRANCH   5   7
HETATM    7  C           1     171.988 187.502 285.527  0.00  0.00     0.308 C 
BRANCH   7   8
HETATM    8  N           1     172.056 187.549 284.092  0.00  0.00     0.087 N 
HETATM    9  H           1     172.831 186.970 283.769  0.00  0.00     0.316 HD
BRANCH   8  10
HETATM   10  C           1     172.287 188.916 283.710  0.00  0.00     0.270 C 
BRANCH  10  11
HETATM   11  C           1     173.695 189.055 283.146  0.00  0.00     0.032 C 
BRANCH  11  12
HETATM   12  C           1     173.644 188.988 281.625  0.00  0.00     0.032 C 
BRANCH  12  13
HETATM   13  C           1     174.620 187.930 281.130  0.00  0.00     0.271 C 
BRANCH  13  14
HETATM   14  N           1     174.586 186.794 282.012  0.00  0.00     0.080 N 
HETATM   15  C           1     173.762 185.789 281.398  0.00  0.00     0.309 C 
HETATM   16  C           1     175.922 186.271 282.102  0.00  0.00     0.309 C 
ENDBRANCH  13  14
ENDBRANCH  12  13
ENDBRANCH  11  12
ENDBRANCH  10  11
ENDBRANCH   8  10
ENDBRANCH   7   8
ENDBRANCH   5   7
BRANCH   4  17
HETATM   17  S           1     172.507 187.775 288.496  0.00  0.00    -0.105 SA
BRANCH  17  18
HETATM   18  C           1     172.984 186.878 290.001  0.00  0.00     0.122 C 
BRANCH  18  19
HETATM   19  C           1     171.887 186.982 291.013  0.00  0.00    -0.049 A 
HETATM   20  C           1     172.149 186.717 292.357  0.00  0.00     0.008 A 
HETATM   21  C           1     171.127 186.814 293.300  0.00  0.00     0.001 A 
HETATM   22  C           1     169.841 187.176 292.900  0.00  0.00     0.000 A 
HETATM   23  C           1     169.577 187.440 291.556  0.00  0.00     0.001 A 
HETATM   24  C           1     170.600 187.343 290.613  0.00  0.00     0.008 A 
ENDBRANCH  18  19
ENDBRANCH  17  18
ENDBRANCH   4  17
TORSDOF 10
ENDMDL
MODEL 7
REMARK VINA RESULT:      -5.9      6.603     13.369
REMARK  10 active torsions:
REMARK  status: ('A' for Active; 'I' for Inactive)
REMARK    1  A    between atoms: C_4  and  S_16 
REMARK    2  A    between atoms: C_5  and  C_7 
REMARK    3  A    between atoms: C_7  and  N_8 
REMARK    4  A    between atoms: N_8  and  C_9 
REMARK    5  A    between atoms: C_9  and  C_10 
REMARK    6  A    between atoms: C_10  and  C_11 
REMARK    7  A    between atoms: C_11  and  C_12 
REMARK    8  A    between atoms: C_12  and  N_13 
REMARK    9  A    between atoms: S_16  and  C_23 
REMARK   10  A    between atoms: C_17  and  C_23 
ROOT
HETATM    1  C           1     177.642 185.877 276.331  0.00  0.00     0.020 A 
HETATM    2  C           1     177.937 186.384 275.076  0.00  0.00     0.118 A 
HETATM    3  N           1     177.005 186.651 274.135  0.00  0.00    -0.254 NA
HETATM    4  C           1     175.720 186.397 274.467  0.00  0.00     0.101 A 
HETATM    5  C           1     175.327 185.890 275.695  0.00  0.00     0.005 A 
HETATM    6  C           1     176.309 185.626 276.643  0.00  0.00     0.013 A 
ENDROOT
BRANCH   5   7
HETATM    7  C           1     173.882 185.633 275.993  0.00  0.00     0.308 C 
BRANCH   7   8
HETATM    8  N           1     173.690 185.567 277.416  0.00  0.00     0.087 N 
HETATM    9  H           1     174.175 184.751 277.787  0.00  0.00     0.316 HD
BRANCH   8  10
HETATM   10  C           1     172.279 185.439 277.662  0.00  0.00     0.270 C 
BRANCH  10  11
HETATM   11  C           1     171.943 186.041 279.019  0.00  0.00     0.032 C 
BRANCH  11  12
HETATM   12  C           1     173.212 186.165 279.851  0.00  0.00     0.032 C 
BRANCH  12  13
HETATM   13  C           1     172.863 186.074 281.330  0.00  0.00     0.271 C 
BRANCH  13  14
HETATM   14  N           1     173.886 185.336 282.021  0.00  0.00     0.080 N 
HETATM   15  C           1     175.016 186.208 282.190  0.00  0.00     0.309 C 
HETATM   16  C           1     173.383 185.013 283.329  0.00  0.00     0.309 C 
ENDBRANCH  13  14
ENDBRANCH  12  13
ENDBRANCH  11  12
ENDBRANCH  10  11
ENDBRANCH   8  10
ENDBRANCH   7   8
ENDBRANCH   5   7
BRANCH   4  17
HETATM   17  S           1     174.435 186.740 273.232  0.00  0.00    -0.105 SA
BRANCH  17  18
HETATM   18  C           1     175.573 186.600 271.824  0.00  0.00     0.122 C 
BRANCH  18  19
HETATM   19  C           1     175.619 185.179 271.358  0.00  0.00    -0.049 A 
HETATM   20  C           1     174.636 184.278 271.767  0.00  0.00     0.008 A 
HETATM   21  C           1     174.678 182.954 271.333  0.00  0.00     0.001 A 
HETATM   22  C           1     175.705 182.529 270.489  0.00  0.00     0.000 A 
HETATM   23  C           1     176.690 183.429 270.081  0.00  0.00     0.001 A 
HETATM   24  C           1     176.646 184.754 270.516  0.00  0.00     0.008 A 
ENDBRANCH  18  19
ENDBRANCH  17  18
ENDBRANCH   4  17
TORSDOF 10
ENDMDL
MODEL 8
REMARK VINA RESULT:      -5.9      2.229      8.101
REMARK  10 active torsions:
REMARK  status: ('A' for Active; 'I' for Inactive)
REMARK    1  A    between atoms: C_4  and  S_16 
REMARK    2  A    between atoms: C_5  and  C_7 
REMARK    3  A    between atoms: C_7  and  N_8 
REMARK    4  A    between atoms: N_8  and  C_9 
REMARK    5  A    between atoms: C_9  and  C_10 
REMARK    6  A    between atoms: C_10  and  C_11 
REMARK    7  A    between atoms: C_11  and  C_12 
REMARK    8  A    between atoms: C_12  and  N_13 
REMARK    9  A    between atoms: S_16  and  C_23 
REMARK   10  A    between atoms: C_17  and  C_23 
ROOT
HETATM    1  C           1     175.016 185.710 288.291  0.00  0.00     0.020 A 
HETATM    2  C           1     175.529 185.413 287.038  0.00  0.00     0.118 A 
HETATM    3  N           1     174.771 185.282 285.928  0.00  0.00    -0.254 NA
HETATM    4  C           1     173.440 185.457 286.080  0.00  0.00     0.101 A 
HETATM    5  C           1     172.834 185.755 287.289  0.00  0.00     0.005 A 
HETATM    6  C           1     173.641 185.883 288.415  0.00  0.00     0.013 A 
ENDROOT
BRANCH   5   7
HETATM    7  C           1     171.351 185.934 287.383  0.00  0.00     0.308 C 
BRANCH   7   8
HETATM    8  N           1     171.038 187.336 287.427  0.00  0.00     0.087 N 
HETATM    9  H           1     171.814 187.844 287.850  0.00  0.00     0.316 HD
BRANCH   8  10
HETATM   10  C           1     169.861 187.497 288.237  0.00  0.00     0.270 C 
BRANCH  10  11
HETATM   11  C           1     170.051 188.676 289.182  0.00  0.00     0.032 C 
BRANCH  11  12
HETATM   12  C           1     171.280 188.441 290.051  0.00  0.00     0.032 C 
BRANCH  12  13
HETATM   13  C           1     170.865 187.746 291.340  0.00  0.00     0.271 C 
BRANCH  13  14
HETATM   14  N           1     171.790 186.683 291.632  0.00  0.00     0.080 N 
HETATM   15  C           1     171.924 186.599 293.061  0.00  0.00     0.309 C 
HETATM   16  C           1     171.200 185.454 291.175  0.00  0.00     0.309 C 
ENDBRANCH  13  14
ENDBRANCH  12  13
ENDBRANCH  11  12
ENDBRANCH  10  11
ENDBRANCH   8  10
ENDBRANCH   7   8
ENDBRANCH   5   7
BRANCH   4  17
HETATM   17  S           1     172.384 185.289 284.613  0.00  0.00    -0.105 SA
BRANCH  17  18
HETATM   18  C           1     172.607 187.016 284.099  0.00  0.00     0.122 C 
BRANCH  18  19
HETATM   19  C           1     173.142 187.057 282.703  0.00  0.00    -0.049 A 
HETATM   20  C           1     172.816 186.045 281.800  0.00  0.00     0.008 A 
HETATM   21  C           1     173.315 186.083 280.499  0.00  0.00     0.001 A 
HETATM   22  C           1     174.142 187.133 280.099  0.00  0.00     0.000 A 
HETATM   23  C           1     174.469 188.145 281.001  0.00  0.00     0.001 A 
HETATM   24  C           1     173.969 188.106 282.303  0.00  0.00     0.008 A 
ENDBRANCH  18  19
ENDBRANCH  17  18
ENDBRANCH   4  17
TORSDOF 10
ENDMDL
MODEL 9
REMARK VINA RESULT:      -5.9      3.575      9.905
REMARK  10 active torsions:
REMARK  status: ('A' for Active; 'I' for Inactive)
REMARK    1  A    between atoms: C_4  and  S_16 
REMARK    2  A    between atoms: C_5  and  C_7 
REMARK    3  A    between atoms: C_7  and  N_8 
REMARK    4  A    between atoms: N_8  and  C_9 
REMARK    5  A    between atoms: C_9  and  C_10 
REMARK    6  A    between atoms: C_10  and  C_11 
REMARK    7  A    between atoms: C_11  and  C_12 
REMARK    8  A    between atoms: C_12  and  N_13 
REMARK    9  A    between atoms: S_16  and  C_23 
REMARK   10  A    between atoms: C_17  and  C_23 
ROOT
HETATM    1  C           1     171.312 189.353 280.521  0.00  0.00     0.020 A 
HETATM    2  C           1     170.598 188.991 279.389  0.00  0.00     0.118 A 
HETATM    3  N           1     170.782 187.831 278.724  0.00  0.00    -0.254 NA
HETATM    4  C           1     171.724 186.995 279.214  0.00  0.00     0.101 A 
HETATM    5  C           1     172.487 187.268 280.338  0.00  0.00     0.005 A 
HETATM    6  C           1     172.274 188.472 281.001  0.00  0.00     0.013 A 
ENDROOT
BRANCH   5   7
HETATM    7  C           1     173.515 186.293 280.824  0.00  0.00     0.308 C 
BRANCH   7   8
HETATM    8  N           1     174.735 186.992 281.124  0.00  0.00     0.087 N 
HETATM    9  H           1     175.345 186.977 280.307  0.00  0.00     0.316 HD
BRANCH   8  10
HETATM   10  C           1     175.376 186.306 282.213  0.00  0.00     0.270 C 
BRANCH  10  11
HETATM   11  C           1     174.640 185.003 282.497  0.00  0.00     0.032 C 
BRANCH  11  12
HETATM   12  C           1     174.711 184.692 283.986  0.00  0.00     0.032 C 
BRANCH  12  13
HETATM   13  C           1     174.435 185.959 284.784  0.00  0.00     0.271 C 
BRANCH  13  14
HETATM   14  N           1     173.253 185.775 285.582  0.00  0.00     0.080 N 
HETATM   15  C           1     173.599 184.923 286.687  0.00  0.00     0.309 C 
HETATM   16  C           1     172.885 187.058 286.118  0.00  0.00     0.309 C 
ENDBRANCH  13  14
ENDBRANCH  12  13
ENDBRANCH  11  12
ENDBRANCH  10  11
ENDBRANCH   8  10
ENDBRANCH   7   8
ENDBRANCH   5   7
BRANCH   4  17
HETATM   17  S           1     172.005 185.424 278.350  0.00  0.00    -0.105 SA
BRANCH  17  18
HETATM   18  C           1     172.446 186.221 276.780  0.00  0.00     0.122 C 
BRANCH  18  19
HETATM   19  C           1     173.908 186.039 276.520  0.00  0.00    -0.049 A 
HETATM   20  C           1     174.846 186.685 277.325  0.00  0.00     0.008 A 
HETATM   21  C           1     176.209 186.515 277.083  0.00  0.00     0.001 A 
HETATM   22  C           1     176.635 185.699 276.035  0.00  0.00     0.000 A 
HETATM   23  C           1     175.698 185.053 275.229  0.00  0.00     0.001 A 
HETATM   24  C           1     174.334 185.223 275.472  0.00  0.00     0.008 A 
ENDBRANCH  18  19
ENDBRANCH  17  18
ENDBRANCH   4  17
TORSDOF 10
ENDMDL
