REMARK  10 active torsions:
REMARK  status: ('A' for Active; 'I' for Inactive)
REMARK    1  A    between atoms: C_1  and  C_19 
REMARK    2  A    between atoms: C_5  and  S_31 
REMARK    3  A    between atoms: C_6  and  C_8 
REMARK    4  A    between atoms: C_8  and  N_9 
REMARK    5  A    between atoms: N_9  and  C_10 
REMARK    6  A    between atoms: C_10  and  C_11 
REMARK    7  A    between atoms: C_11  and  C_12 
REMARK    8  A    between atoms: N_15  and  C_18 
REMARK    9  A    between atoms: S_31  and  C_38 
REMARK   10  A    between atoms: C_32  and  C_38 
ROOT
HETATM    1  C           1      -2.760  -4.424   2.278  0.00  0.00    -0.007 A 
HETATM    2  C           1      -3.628  -4.399   1.199  0.00  0.00     0.101 A 
HETATM    3  N           1      -3.604  -3.451   0.236  0.00  0.00    -0.359 N 
ATOM      4  HN          1      -4.259  -3.463  -0.545  1.00  0.00     0.166 HD
HETATM    5  C           1      -2.667  -2.486   0.362  0.00  0.00     0.077 A 
HETATM    6  C           1      -1.756  -2.426   1.404  0.00  0.00     0.004 A 
HETATM    7  C           1      -1.806  -3.416   2.379  0.00  0.00     0.025 A 
ENDROOT
BRANCH   6   8
HETATM    8  C           1      -0.745  -1.325   1.478  0.00  0.00     0.311 C 
BRANCH   8   9
HETATM    9  N           1      -0.911  -0.444   0.354  0.00  0.00     0.087 N 
HETATM   10  H           1      -0.763  -0.964  -0.510  0.00  0.00     0.316 HD
BRANCH   9  11
HETATM   11  C           1       0.076   0.596   0.464  0.00  0.00     0.270 C 
BRANCH  11  12
HETATM   12  C           1      -0.063   1.556  -0.710  0.00  0.00     0.034 C 
BRANCH  12  13
HETATM   13  C           1       0.983   2.657  -0.594  0.00  0.00    -0.010 C 
HETATM   14  C           1       1.817   2.425   0.661  0.00  0.00     0.035 C 
HETATM   15  C           1       3.003   3.385   0.724  0.00  0.00     0.273 C 
HETATM   16  N           1       3.829   3.296  -0.482  0.00  0.00     0.093 N 
HETATM   17  C           1       3.052   3.593  -1.686  0.00  0.00     0.273 C 
HETATM   18  C           1       1.868   2.640  -1.836  0.00  0.00     0.035 C 
BRANCH  16  19
HETATM   19  C           1       4.836   4.314  -0.349  0.00  0.00     0.223 C 
HETATM   20  C           1       5.579   4.175   0.971  0.00  0.00     0.036 C 
HETATM   21  C           1       6.980   4.727   0.712  0.00  0.00     0.002 C 
HETATM   22  C           1       7.094   4.915  -0.800  0.00  0.00     0.002 C 
HETATM   23  C           1       5.929   4.134  -1.388  0.00  0.00     0.036 C 
ENDBRANCH  16  19
ENDBRANCH  12  13
ENDBRANCH  11  12
ENDBRANCH   9  11
ENDBRANCH   8   9
ENDBRANCH   6   8
BRANCH   5  24
HETATM   24  S           1      -2.598  -1.192  -0.909  0.00  0.00    -0.107 SA
BRANCH  24  25
HETATM   25  C           1      -3.980  -1.879  -1.865  0.00  0.00     0.119 C 
BRANCH  25  26
HETATM   26  C           1      -4.231  -1.022  -3.066  0.00  0.00    -0.049 A 
HETATM   27  C           1      -5.252  -1.353  -3.958  0.00  0.00     0.008 A 
HETATM   28  C           1      -5.486  -0.555  -5.077  0.00  0.00     0.001 A 
HETATM   29  C           1      -4.700   0.574  -5.306  0.00  0.00     0.000 A 
HETATM   30  C           1      -3.680   0.905  -4.414  0.00  0.00     0.001 A 
HETATM   31  C           1      -3.445   0.107  -3.295  0.00  0.00     0.008 A 
ENDBRANCH  25  26
ENDBRANCH  24  25
ENDBRANCH   5  24
BRANCH   1  32
HETATM   32  C           1      -2.836  -5.392   3.198  0.00  0.00     0.014 A 
HETATM   33  C           1      -3.459  -5.143   4.421  0.00  0.00     0.130 A 
HETATM   34  F           1      -3.972  -3.953   4.671  0.00  0.00    -0.205 F 
HETATM   35  C           1      -3.538  -6.152   5.381  0.00  0.00     0.085 A 
HETATM   36  C           1      -2.995  -7.410   5.117  0.00  0.00     0.119 A 
HETATM   37  F           1      -3.070  -8.365   6.025  0.00  0.00    -0.206 F 
HETATM   38  C           1      -2.373  -7.658   3.894  0.00  0.00     0.043 A 
HETATM   39  C           1      -2.293  -6.649   2.934  0.00  0.00     0.018 A 
ENDBRANCH   1  32
TORSDOF 10
