REMARK  11 active torsions:
REMARK  status: ('A' for Active; 'I' for Inactive)
REMARK    1  A    between atoms: C_1  and  C_19 
REMARK    2  A    between atoms: C_5  and  S_29 
REMARK    3  A    between atoms: C_6  and  C_8 
REMARK    4  A    between atoms: C_8  and  N_9 
REMARK    5  A    between atoms: N_9  and  C_10 
REMARK    6  A    between atoms: C_10  and  C_11 
REMARK    7  A    between atoms: C_11  and  C_12 
REMARK    8  A    between atoms: N_15  and  C_18 
REMARK    9  A    between atoms: C_22  and  O_37 
REMARK   10  A    between atoms: S_29  and  C_36 
REMARK   11  A    between atoms: C_30  and  C_36 
ROOT
HETATM    1  C           1      -2.640  -3.919   1.997  0.00  0.00    -0.010 A 
HETATM    2  C           1      -3.509  -3.894   0.917  0.00  0.00     0.101 A 
HETATM    3  N           1      -3.484  -2.946  -0.045  0.00  0.00    -0.359 N 
ATOM      4  HN          1      -4.139  -2.959  -0.827  1.00  0.00     0.166 HD
HETATM    5  C           1      -2.548  -1.980   0.080  0.00  0.00     0.077 A 
HETATM    6  C           1      -1.637  -1.921   1.123  0.00  0.00     0.004 A 
HETATM    7  C           1      -1.687  -2.911   2.098  0.00  0.00     0.025 A 
ENDROOT
BRANCH   6   8
HETATM    8  C           1      -0.625  -0.819   1.197  0.00  0.00     0.311 C 
BRANCH   8   9
HETATM    9  N           1      -0.792   0.062   0.073  0.00  0.00     0.087 N 
HETATM   10  H           1      -0.643  -0.458  -0.792  0.00  0.00     0.316 HD
BRANCH   9  11
HETATM   11  C           1       0.196   1.101   0.183  0.00  0.00     0.270 C 
BRANCH  11  12
HETATM   12  C           1       0.056   2.061  -0.992  0.00  0.00     0.034 C 
BRANCH  12  13
HETATM   13  C           1       1.102   3.162  -0.876  0.00  0.00    -0.010 C 
HETATM   14  C           1       1.937   2.930   0.380  0.00  0.00     0.035 C 
HETATM   15  C           1       3.123   3.891   0.442  0.00  0.00     0.273 C 
HETATM   16  N           1       3.948   3.802  -0.763  0.00  0.00     0.093 N 
HETATM   17  C           1       3.171   4.099  -1.967  0.00  0.00     0.273 C 
HETATM   18  C           1       1.987   3.146  -2.118  0.00  0.00     0.035 C 
BRANCH  16  19
HETATM   19  C           1       4.955   4.819  -0.630  0.00  0.00     0.223 C 
HETATM   20  C           1       5.698   4.681   0.690  0.00  0.00     0.036 C 
HETATM   21  C           1       7.100   5.232   0.430  0.00  0.00     0.002 C 
HETATM   22  C           1       7.214   5.420  -1.081  0.00  0.00     0.002 C 
HETATM   23  C           1       6.049   4.640  -1.669  0.00  0.00     0.036 C 
ENDBRANCH  16  19
ENDBRANCH  12  13
ENDBRANCH  11  12
ENDBRANCH   9  11
ENDBRANCH   8   9
ENDBRANCH   6   8
BRANCH   5  24
HETATM   24  S           1      -2.479  -0.686  -1.191  0.00  0.00    -0.107 SA
BRANCH  24  25
HETATM   25  C           1      -3.860  -1.374  -2.146  0.00  0.00     0.119 C 
BRANCH  25  26
HETATM   26  C           1      -4.112  -0.517  -3.348  0.00  0.00    -0.049 A 
HETATM   27  C           1      -5.133  -0.848  -4.239  0.00  0.00     0.008 A 
HETATM   28  C           1      -5.367  -0.050  -5.359  0.00  0.00     0.001 A 
HETATM   29  C           1      -4.581   1.080  -5.587  0.00  0.00     0.000 A 
HETATM   30  C           1      -3.560   1.411  -4.696  0.00  0.00     0.001 A 
HETATM   31  C           1      -3.326   0.612  -3.576  0.00  0.00     0.008 A 
ENDBRANCH  25  26
ENDBRANCH  24  25
ENDBRANCH   5  24
BRANCH   1  32
HETATM   32  C           1      -2.717  -4.886   2.916  0.00  0.00    -0.024 A 
HETATM   33  C           1      -3.339  -4.638   4.140  0.00  0.00     0.015 A 
HETATM   34  C           1      -3.419  -5.647   5.099  0.00  0.00     0.037 A 
HETATM   35  C           1      -2.876  -6.904   4.836  0.00  0.00     0.068 A 
HETATM   36  C           1      -2.253  -7.153   3.612  0.00  0.00     0.037 A 
HETATM   37  C           1      -2.174  -6.144   2.653  0.00  0.00     0.015 A 
BRANCH  35  38
HETATM   38  O           1      -2.953  -7.885   5.768  0.00  0.00    -0.356 OA
HETATM   39  C           1      -2.349  -9.062   5.304  0.00  0.00     0.210 C 
ENDBRANCH  35  38
ENDBRANCH   1  32
TORSDOF 11
