REMARK  11 active torsions:
REMARK  status: ('A' for Active; 'I' for Inactive)
REMARK    1  A    between atoms: C_1  and  C_19 
REMARK    2  A    between atoms: C_5  and  S_32 
REMARK    3  A    between atoms: C_6  and  C_8 
REMARK    4  A    between atoms: C_8  and  N_9 
REMARK    5  A    between atoms: N_9  and  C_10 
REMARK    6  A    between atoms: C_10  and  C_11 
REMARK    7  A    between atoms: C_11  and  C_12 
REMARK    8  A    between atoms: N_15  and  C_18 
REMARK    9  A    between atoms: C_22  and  N_25 
REMARK   10  A    between atoms: S_32  and  C_39 
REMARK   11  A    between atoms: C_33  and  C_39 
ROOT
HETATM    1  C           1      -2.457  -3.548   1.636  0.00  0.00    -0.010 A 
HETATM    2  C           1      -3.325  -3.523   0.557  0.00  0.00     0.101 A 
HETATM    3  N           1      -3.301  -2.575  -0.405  0.00  0.00    -0.359 N 
ATOM      4  HN          1      -3.957  -2.587  -1.186  1.00  0.00     0.166 HD
HETATM    5  C           1      -2.364  -1.610  -0.280  0.00  0.00     0.077 A 
HETATM    6  C           1      -1.453  -1.550   0.762  0.00  0.00     0.004 A 
HETATM    7  C           1      -1.503  -2.540   1.738  0.00  0.00     0.025 A 
ENDROOT
BRANCH   6   8
HETATM    8  C           1      -0.442  -0.449   0.836  0.00  0.00     0.311 C 
BRANCH   8   9
HETATM    9  N           1      -0.608   0.432  -0.288  0.00  0.00     0.087 N 
HETATM   10  H           1      -0.460  -0.088  -1.152  0.00  0.00     0.316 HD
BRANCH   9  11
HETATM   11  C           1       0.380   1.472  -0.178  0.00  0.00     0.270 C 
BRANCH  11  12
HETATM   12  C           1       0.240   2.432  -1.352  0.00  0.00     0.034 C 
BRANCH  12  13
HETATM   13  C           1       1.286   3.533  -1.236  0.00  0.00    -0.010 C 
HETATM   14  C           1       2.120   3.301   0.019  0.00  0.00     0.035 C 
HETATM   15  C           1       3.306   4.261   0.082  0.00  0.00     0.273 C 
HETATM   16  N           1       4.132   4.172  -1.123  0.00  0.00     0.093 N 
HETATM   17  C           1       3.355   4.469  -2.328  0.00  0.00     0.273 C 
HETATM   18  C           1       2.171   3.516  -2.478  0.00  0.00     0.035 C 
BRANCH  16  19
HETATM   19  C           1       5.139   5.190  -0.991  0.00  0.00     0.223 C 
HETATM   20  C           1       5.882   5.051   0.329  0.00  0.00     0.036 C 
HETATM   21  C           1       7.283   5.603   0.070  0.00  0.00     0.002 C 
HETATM   22  C           1       7.397   5.791  -1.442  0.00  0.00     0.002 C 
HETATM   23  C           1       6.232   5.010  -2.029  0.00  0.00     0.036 C 
ENDBRANCH  16  19
ENDBRANCH  12  13
ENDBRANCH  11  12
ENDBRANCH   9  11
ENDBRANCH   8   9
ENDBRANCH   6   8
BRANCH   5  24
HETATM   24  S           1      -2.295  -0.316  -1.551  0.00  0.00    -0.107 SA
BRANCH  24  25
HETATM   25  C           1      -3.677  -1.003  -2.507  0.00  0.00     0.119 C 
BRANCH  25  26
HETATM   26  C           1      -3.928  -0.146  -3.708  0.00  0.00    -0.049 A 
HETATM   27  C           1      -4.949  -0.477  -4.599  0.00  0.00     0.008 A 
HETATM   28  C           1      -5.183   0.321  -5.719  0.00  0.00     0.001 A 
HETATM   29  C           1      -4.397   1.450  -5.947  0.00  0.00     0.000 A 
HETATM   30  C           1      -3.376   1.781  -5.056  0.00  0.00     0.001 A 
HETATM   31  C           1      -3.142   0.983  -3.937  0.00  0.00     0.008 A 
ENDBRANCH  25  26
ENDBRANCH  24  25
ENDBRANCH   5  24
BRANCH   1  32
HETATM   32  C           1      -2.533  -4.516   2.556  0.00  0.00    -0.025 A 
HETATM   33  C           1      -3.156  -4.267   3.779  0.00  0.00     0.014 A 
HETATM   34  C           1      -3.235  -5.277   4.739  0.00  0.00     0.030 A 
HETATM   35  C           1      -2.692  -6.534   4.475  0.00  0.00     0.029 A 
HETATM   36  C           1      -2.070  -6.782   3.252  0.00  0.00     0.030 A 
HETATM   37  C           1      -1.990  -5.773   2.292  0.00  0.00     0.014 A 
BRANCH  35  38
HETATM   38  N           1      -2.764  -7.450   5.346  0.00  0.00    -0.390 N 
HETATM   39  C           1      -2.192  -8.775   5.068  0.00  0.00     0.149 C 
HETATM   40  C           1      -3.420  -7.188   6.635  0.00  0.00     0.149 C 
ENDBRANCH  35  38
ENDBRANCH   1  32
TORSDOF 11
