REMARK  10 active torsions:
REMARK  status: ('A' for Active; 'I' for Inactive)
REMARK    1  A    between atoms: C_1  and  C_20 
REMARK    2  A    between atoms: C_5  and  S_26 
REMARK    3  A    between atoms: C_6  and  C_8 
REMARK    4  A    between atoms: C_8  and  N_9 
REMARK    5  A    between atoms: N_9  and  C_10 
REMARK    6  A    between atoms: C_10  and  C_11 
REMARK    7  A    between atoms: C_11  and  C_12 
REMARK    8  A    between atoms: N_15  and  C_18 
REMARK    9  A    between atoms: S_26  and  C_33 
REMARK   10  A    between atoms: C_27  and  C_33 
ROOT
HETATM    1  C           1       5.031   0.659  -0.108  0.00  0.00    -0.010 A 
HETATM    2  C           1       5.840  -0.428   0.183  0.00  0.00     0.101 A 
HETATM    3  N           1       5.368  -1.651   0.509  0.00  0.00    -0.359 N 
ATOM      4  HN          1       5.994  -2.429   0.718  1.00  0.00     0.166 HD
HETATM    5  C           1       4.024  -1.791   0.544  0.00  0.00     0.077 A 
HETATM    6  C           1       3.135  -0.765   0.269  0.00  0.00     0.004 A 
HETATM    7  C           1       3.652   0.483  -0.063  0.00  0.00     0.025 A 
ENDROOT
BRANCH   6   8
HETATM    8  C           1       1.657  -0.993   0.328  0.00  0.00     0.307 C 
BRANCH   8   9
HETATM    9  N           1       0.969   0.227   0.001  0.00  0.00     0.087 N 
HETATM   10  H           1       1.214   0.947   0.681  0.00  0.00     0.316 HD
BRANCH   9  11
HETATM   11  C           1      -0.443  -0.035   0.069  0.00  0.00     0.270 C 
BRANCH  11  12
HETATM   12  C           1      -1.213   1.234  -0.270  0.00  0.00     0.034 C 
BRANCH  12  13
HETATM   13  C           1      -2.709   0.957  -0.199  0.00  0.00    -0.010 C 
HETATM   14  C           1      -3.336   1.862   0.857  0.00  0.00     0.035 C 
HETATM   15  C           1      -4.860   1.764   0.834  0.00  0.00     0.272 C 
HETATM   16  N           1      -5.397   2.056  -0.496  0.00  0.00     0.088 N 
HETATM   17  C           1      -4.857   1.141  -1.503  0.00  0.00     0.272 C 
HETATM   18  C           1      -3.333   1.216  -1.566  0.00  0.00     0.035 C 
BRANCH  16  19
HETATM   19  C           1      -6.814   1.827  -0.412  0.00  0.00     0.268 C 
HETATM   20  C           1      -7.455   2.109  -1.764  0.00  0.00     0.037 C 
ENDBRANCH  16  19
ENDBRANCH  12  13
ENDBRANCH  11  12
ENDBRANCH   9  11
ENDBRANCH   8   9
ENDBRANCH   6   8
BRANCH   5  21
HETATM   21  S           1       3.346  -3.418   0.976  0.00  0.00    -0.107 SA
BRANCH  21  22
HETATM   22  C           1       1.619  -2.878   0.830  0.00  0.00     0.122 C 
BRANCH  22  23
HETATM   23  C           1       0.709  -4.026   1.135  0.00  0.00    -0.049 A 
HETATM   24  C           1       1.243  -5.271   1.467  0.00  0.00     0.008 A 
HETATM   25  C           1       0.395  -6.341   1.751  0.00  0.00     0.001 A 
HETATM   26  C           1      -0.988  -6.167   1.702  0.00  0.00     0.000 A 
HETATM   27  C           1      -1.523  -4.922   1.370  0.00  0.00     0.001 A 
HETATM   28  C           1      -0.674  -3.852   1.086  0.00  0.00     0.008 A 
ENDBRANCH  22  23
ENDBRANCH  21  22
ENDBRANCH   5  21
BRANCH   1  29
HETATM   29  C           1       5.562   1.845  -0.423  0.00  0.00    -0.025 A 
HETATM   30  C           1       6.894   1.927  -0.829  0.00  0.00     0.012 A 
HETATM   31  C           1       7.448   3.164  -1.158  0.00  0.00     0.001 A 
HETATM   32  C           1       6.670   4.319  -1.080  0.00  0.00     0.000 A 
HETATM   33  C           1       5.338   4.237  -0.674  0.00  0.00     0.001 A 
HETATM   34  C           1       4.784   3.000  -0.345  0.00  0.00     0.012 A 
ENDBRANCH   1  29
TORSDOF 10
