REMARK  11 active torsions:
REMARK  status: ('A' for Active; 'I' for Inactive)
REMARK    1  A    between atoms: C_1  and  C_20 
REMARK    2  A    between atoms: C_5  and  S_26 
REMARK    3  A    between atoms: C_6  and  C_8 
REMARK    4  A    between atoms: C_8  and  N_9 
REMARK    5  A    between atoms: N_9  and  C_10 
REMARK    6  A    between atoms: C_10  and  C_11 
REMARK    7  A    between atoms: C_11  and  C_12 
REMARK    8  A    between atoms: N_15  and  C_18 
REMARK    9  A    between atoms: C_23  and  O_34 
REMARK   10  A    between atoms: S_26  and  C_33 
REMARK   11  A    between atoms: C_27  and  C_33 
ROOT
HETATM    1  C           1       4.688   0.275  -0.038  0.00  0.00    -0.010 A 
HETATM    2  C           1       5.497  -0.811   0.253  0.00  0.00     0.101 A 
HETATM    3  N           1       5.024  -2.034   0.578  0.00  0.00    -0.359 N 
ATOM      4  HN          1       5.650  -2.812   0.786  1.00  0.00     0.166 HD
HETATM    5  C           1       3.681  -2.174   0.614  0.00  0.00     0.077 A 
HETATM    6  C           1       2.791  -1.148   0.339  0.00  0.00     0.004 A 
HETATM    7  C           1       3.308   0.100   0.007  0.00  0.00     0.025 A 
ENDROOT
BRANCH   6   8
HETATM    8  C           1       1.313  -1.376   0.398  0.00  0.00     0.307 C 
BRANCH   8   9
HETATM    9  N           1       0.626  -0.156   0.071  0.00  0.00     0.087 N 
HETATM   10  H           1       0.871   0.564   0.751  0.00  0.00     0.316 HD
BRANCH   9  11
HETATM   11  C           1      -0.787  -0.418   0.139  0.00  0.00     0.270 C 
BRANCH  11  12
HETATM   12  C           1      -1.556   0.851  -0.200  0.00  0.00     0.034 C 
BRANCH  12  13
HETATM   13  C           1      -3.052   0.573  -0.129  0.00  0.00    -0.010 C 
HETATM   14  C           1      -3.680   1.478   0.927  0.00  0.00     0.035 C 
HETATM   15  C           1      -5.204   1.381   0.904  0.00  0.00     0.272 C 
HETATM   16  N           1      -5.740   1.673  -0.426  0.00  0.00     0.088 N 
HETATM   17  C           1      -5.201   0.758  -1.433  0.00  0.00     0.272 C 
HETATM   18  C           1      -3.676   0.833  -1.496  0.00  0.00     0.035 C 
BRANCH  16  19
HETATM   19  C           1      -7.157   1.444  -0.342  0.00  0.00     0.268 C 
HETATM   20  C           1      -7.799   1.726  -1.694  0.00  0.00     0.037 C 
ENDBRANCH  16  19
ENDBRANCH  12  13
ENDBRANCH  11  12
ENDBRANCH   9  11
ENDBRANCH   8   9
ENDBRANCH   6   8
BRANCH   5  21
HETATM   21  S           1       3.002  -3.801   1.046  0.00  0.00    -0.107 SA
BRANCH  21  22
HETATM   22  C           1       1.276  -3.261   0.900  0.00  0.00     0.122 C 
BRANCH  22  23
HETATM   23  C           1       0.365  -4.410   1.204  0.00  0.00    -0.049 A 
HETATM   24  C           1       0.900  -5.654   1.537  0.00  0.00     0.008 A 
HETATM   25  C           1       0.051  -6.724   1.821  0.00  0.00     0.001 A 
HETATM   26  C           1      -1.332  -6.550   1.772  0.00  0.00     0.000 A 
HETATM   27  C           1      -1.866  -5.305   1.440  0.00  0.00     0.001 A 
HETATM   28  C           1      -1.018  -4.235   1.156  0.00  0.00     0.008 A 
ENDBRANCH  22  23
ENDBRANCH  21  22
ENDBRANCH   5  21
BRANCH   1  29
HETATM   29  C           1       5.218   1.461  -0.353  0.00  0.00    -0.024 A 
HETATM   30  C           1       6.550   1.543  -0.759  0.00  0.00     0.015 A 
HETATM   31  C           1       7.104   2.781  -1.088  0.00  0.00     0.037 A 
HETATM   32  C           1       6.326   3.936  -1.010  0.00  0.00     0.068 A 
HETATM   33  C           1       4.994   3.854  -0.604  0.00  0.00     0.037 A 
HETATM   34  C           1       4.440   2.616  -0.275  0.00  0.00     0.015 A 
BRANCH  32  35
HETATM   35  O           1       6.864   5.138  -1.330  0.00  0.00    -0.356 OA
HETATM   36  C           1       5.917   6.161  -1.185  0.00  0.00     0.210 C 
ENDBRANCH  32  35
ENDBRANCH   1  29
TORSDOF 11
