REMARK  11 active torsions:
REMARK  status: ('A' for Active; 'I' for Inactive)
REMARK    1  A    between atoms: C_1  and  C_20 
REMARK    2  A    between atoms: C_5  and  S_27 
REMARK    3  A    between atoms: C_6  and  C_8 
REMARK    4  A    between atoms: C_8  and  N_9 
REMARK    5  A    between atoms: N_9  and  C_10 
REMARK    6  A    between atoms: C_10  and  C_11 
REMARK    7  A    between atoms: C_11  and  C_12 
REMARK    8  A    between atoms: N_15  and  C_18 
REMARK    9  A    between atoms: C_23  and  O_35 
REMARK   10  A    between atoms: S_27  and  C_34 
REMARK   11  A    between atoms: C_28  and  C_34 
ROOT
HETATM    1  C           1       4.685   0.275  -0.037  0.00  0.00    -0.010 A 
HETATM    2  C           1       5.494  -0.812   0.254  0.00  0.00     0.101 A 
HETATM    3  N           1       5.021  -2.035   0.579  0.00  0.00    -0.359 N 
ATOM      4  HN          1       5.647  -2.813   0.787  1.00  0.00     0.166 HD
HETATM    5  C           1       3.678  -2.175   0.615  0.00  0.00     0.077 A 
HETATM    6  C           1       2.788  -1.148   0.340  0.00  0.00     0.004 A 
HETATM    7  C           1       3.305   0.100   0.008  0.00  0.00     0.025 A 
ENDROOT
BRANCH   6   8
HETATM    8  C           1       1.310  -1.377   0.398  0.00  0.00     0.307 C 
BRANCH   8   9
HETATM    9  N           1       0.623  -0.156   0.072  0.00  0.00     0.087 N 
HETATM   10  H           1       0.868   0.564   0.752  0.00  0.00     0.316 HD
BRANCH   9  11
HETATM   11  C           1      -0.790  -0.419   0.140  0.00  0.00     0.270 C 
BRANCH  11  12
HETATM   12  C           1      -1.559   0.851  -0.200  0.00  0.00     0.034 C 
BRANCH  12  13
HETATM   13  C           1      -3.055   0.573  -0.128  0.00  0.00    -0.010 C 
HETATM   14  C           1      -3.683   1.478   0.928  0.00  0.00     0.035 C 
HETATM   15  C           1      -5.207   1.381   0.905  0.00  0.00     0.272 C 
HETATM   16  N           1      -5.743   1.673  -0.425  0.00  0.00     0.088 N 
HETATM   17  C           1      -5.204   0.758  -1.432  0.00  0.00     0.272 C 
HETATM   18  C           1      -3.679   0.833  -1.495  0.00  0.00     0.035 C 
BRANCH  16  19
HETATM   19  C           1      -7.160   1.444  -0.341  0.00  0.00     0.268 C 
HETATM   20  C           1      -7.802   1.726  -1.693  0.00  0.00     0.037 C 
ENDBRANCH  16  19
ENDBRANCH  12  13
ENDBRANCH  11  12
ENDBRANCH   9  11
ENDBRANCH   8   9
ENDBRANCH   6   8
BRANCH   5  21
HETATM   21  S           1       2.999  -3.801   1.047  0.00  0.00    -0.107 SA
BRANCH  21  22
HETATM   22  C           1       1.273  -3.261   0.901  0.00  0.00     0.122 C 
BRANCH  22  23
HETATM   23  C           1       0.362  -4.410   1.205  0.00  0.00    -0.049 A 
HETATM   24  C           1       0.897  -5.654   1.538  0.00  0.00     0.008 A 
HETATM   25  C           1       0.048  -6.725   1.822  0.00  0.00     0.001 A 
HETATM   26  C           1      -1.335  -6.550   1.773  0.00  0.00     0.000 A 
HETATM   27  C           1      -1.869  -5.306   1.441  0.00  0.00     0.001 A 
HETATM   28  C           1      -1.021  -4.235   1.157  0.00  0.00     0.008 A 
ENDBRANCH  22  23
ENDBRANCH  21  22
ENDBRANCH   5  21
BRANCH   1  29
HETATM   29  C           1       5.216   1.461  -0.352  0.00  0.00    -0.021 A 
HETATM   30  C           1       6.547   1.543  -0.758  0.00  0.00     0.057 A 
HETATM   31  C           1       7.101   2.780  -1.087  0.00  0.00     0.150 A 
HETATM   32  F           1       8.361   2.858  -1.472  0.00  0.00    -0.203 F 
HETATM   33  C           1       6.323   3.936  -1.010  0.00  0.00     0.106 A 
HETATM   34  C           1       4.991   3.854  -0.603  0.00  0.00     0.041 A 
HETATM   35  C           1       4.438   2.616  -0.274  0.00  0.00     0.015 A 
BRANCH  33  36
HETATM   36  O           1       6.861   5.137  -1.329  0.00  0.00    -0.353 OA
HETATM   37  C           1       5.914   6.161  -1.184  0.00  0.00     0.210 C 
ENDBRANCH  33  36
ENDBRANCH   1  29
TORSDOF 11
