REMARK  10 active torsions:
REMARK  status: ('A' for Active; 'I' for Inactive)
REMARK    1  A    between atoms: C_1  and  C_20 
REMARK    2  A    between atoms: C_5  and  S_28 
REMARK    3  A    between atoms: C_6  and  C_8 
REMARK    4  A    between atoms: C_8  and  N_9 
REMARK    5  A    between atoms: N_9  and  C_10 
REMARK    6  A    between atoms: C_10  and  C_11 
REMARK    7  A    between atoms: C_11  and  C_12 
REMARK    8  A    between atoms: N_15  and  C_18 
REMARK    9  A    between atoms: S_28  and  C_35 
REMARK   10  A    between atoms: C_29  and  C_35 
ROOT
HETATM    1  C           1       5.028   0.659  -0.107  0.00  0.00    -0.007 A 
HETATM    2  C           1       5.837  -0.428   0.184  0.00  0.00     0.101 A 
HETATM    3  N           1       5.364  -1.651   0.510  0.00  0.00    -0.359 N 
ATOM      4  HN          1       5.989  -2.429   0.719  1.00  0.00     0.166 HD
HETATM    5  C           1       4.021  -1.791   0.545  0.00  0.00     0.077 A 
HETATM    6  C           1       3.132  -0.765   0.270  0.00  0.00     0.004 A 
HETATM    7  C           1       3.649   0.483  -0.062  0.00  0.00     0.025 A 
ENDROOT
BRANCH   6   8
HETATM    8  C           1       1.653  -0.993   0.329  0.00  0.00     0.307 C 
BRANCH   8   9
HETATM    9  N           1       0.966   0.227   0.002  0.00  0.00     0.087 N 
HETATM   10  H           1       1.211   0.947   0.682  0.00  0.00     0.316 HD
BRANCH   9  11
HETATM   11  C           1      -0.446  -0.035   0.070  0.00  0.00     0.270 C 
BRANCH  11  12
HETATM   12  C           1      -1.216   1.234  -0.269  0.00  0.00     0.034 C 
BRANCH  12  13
HETATM   13  C           1      -2.712   0.957  -0.198  0.00  0.00    -0.010 C 
HETATM   14  C           1      -3.339   1.862   0.858  0.00  0.00     0.035 C 
HETATM   15  C           1      -4.864   1.764   0.835  0.00  0.00     0.272 C 
HETATM   16  N           1      -5.400   2.056  -0.495  0.00  0.00     0.088 N 
HETATM   17  C           1      -4.860   1.141  -1.502  0.00  0.00     0.272 C 
HETATM   18  C           1      -3.336   1.216  -1.565  0.00  0.00     0.035 C 
BRANCH  16  19
HETATM   19  C           1      -6.817   1.827  -0.411  0.00  0.00     0.268 C 
HETATM   20  C           1      -7.459   2.109  -1.763  0.00  0.00     0.037 C 
ENDBRANCH  16  19
ENDBRANCH  12  13
ENDBRANCH  11  12
ENDBRANCH   9  11
ENDBRANCH   8   9
ENDBRANCH   6   8
BRANCH   5  21
HETATM   21  S           1       3.343  -3.418   0.977  0.00  0.00    -0.107 SA
BRANCH  21  22
HETATM   22  C           1       1.616  -2.878   0.831  0.00  0.00     0.122 C 
BRANCH  22  23
HETATM   23  C           1       0.706  -4.027   1.135  0.00  0.00    -0.049 A 
HETATM   24  C           1       1.240  -5.271   1.468  0.00  0.00     0.008 A 
HETATM   25  C           1       0.392  -6.341   1.752  0.00  0.00     0.001 A 
HETATM   26  C           1      -0.991  -6.167   1.703  0.00  0.00     0.000 A 
HETATM   27  C           1      -1.526  -4.922   1.371  0.00  0.00     0.001 A 
HETATM   28  C           1      -0.677  -3.852   1.087  0.00  0.00     0.008 A 
ENDBRANCH  22  23
ENDBRANCH  21  22
ENDBRANCH   5  21
BRANCH   1  29
HETATM   29  C           1       5.559   1.845  -0.422  0.00  0.00     0.014 A 
HETATM   30  C           1       6.891   1.927  -0.828  0.00  0.00     0.130 A 
HETATM   31  F           1       7.627   0.833  -0.902  0.00  0.00    -0.205 F 
HETATM   32  C           1       7.445   3.164  -1.157  0.00  0.00     0.085 A 
HETATM   33  C           1       6.667   4.319  -1.079  0.00  0.00     0.119 A 
HETATM   34  F           1       7.191   5.490  -1.391  0.00  0.00    -0.206 F 
HETATM   35  C           1       5.335   4.237  -0.673  0.00  0.00     0.043 A 
HETATM   36  C           1       4.781   3.000  -0.344  0.00  0.00     0.018 A 
ENDBRANCH   1  29
TORSDOF 10
