REMARK  10 active torsions:
REMARK  status: ('A' for Active; 'I' for Inactive)
REMARK    1  A    between atoms: C_1  and  C_20 
REMARK    2  A    between atoms: C_5  and  S_27 
REMARK    3  A    between atoms: C_6  and  C_8 
REMARK    4  A    between atoms: C_8  and  N_9 
REMARK    5  A    between atoms: N_9  and  C_10 
REMARK    6  A    between atoms: C_10  and  C_11 
REMARK    7  A    between atoms: C_11  and  C_12 
REMARK    8  A    between atoms: N_15  and  C_18 
REMARK    9  A    between atoms: S_27  and  C_34 
REMARK   10  A    between atoms: C_28  and  C_34 
ROOT
HETATM    1  C           1       4.711   0.398  -0.041  0.00  0.00    -0.010 A 
HETATM    2  C           1       5.520  -0.689   0.250  0.00  0.00     0.101 A 
HETATM    3  N           1       5.048  -1.912   0.575  0.00  0.00    -0.359 N 
ATOM      4  HN          1       5.674  -2.690   0.783  1.00  0.00     0.166 HD
HETATM    5  C           1       3.705  -2.052   0.610  0.00  0.00     0.077 A 
HETATM    6  C           1       2.815  -1.026   0.336  0.00  0.00     0.004 A 
HETATM    7  C           1       3.332   0.222   0.004  0.00  0.00     0.025 A 
ENDROOT
BRANCH   6   8
HETATM    8  C           1       1.337  -1.254   0.394  0.00  0.00     0.307 C 
BRANCH   8   9
HETATM    9  N           1       0.649  -0.034   0.068  0.00  0.00     0.087 N 
HETATM   10  H           1       0.894   0.686   0.747  0.00  0.00     0.316 HD
BRANCH   9  11
HETATM   11  C           1      -0.763  -0.296   0.136  0.00  0.00     0.270 C 
BRANCH  11  12
HETATM   12  C           1      -1.533   0.973  -0.204  0.00  0.00     0.034 C 
BRANCH  12  13
HETATM   13  C           1      -3.028   0.696  -0.132  0.00  0.00    -0.010 C 
HETATM   14  C           1      -3.656   1.601   0.923  0.00  0.00     0.035 C 
HETATM   15  C           1      -5.180   1.503   0.901  0.00  0.00     0.272 C 
HETATM   16  N           1      -5.716   1.795  -0.429  0.00  0.00     0.088 N 
HETATM   17  C           1      -5.177   0.880  -1.436  0.00  0.00     0.272 C 
HETATM   18  C           1      -3.653   0.955  -1.500  0.00  0.00     0.035 C 
BRANCH  16  19
HETATM   19  C           1      -7.134   1.566  -0.345  0.00  0.00     0.268 C 
HETATM   20  C           1      -7.775   1.848  -1.697  0.00  0.00     0.037 C 
ENDBRANCH  16  19
ENDBRANCH  12  13
ENDBRANCH  11  12
ENDBRANCH   9  11
ENDBRANCH   8   9
ENDBRANCH   6   8
BRANCH   5  21
HETATM   21  S           1       3.026  -3.679   1.043  0.00  0.00    -0.107 SA
BRANCH  21  22
HETATM   22  C           1       1.299  -3.139   0.896  0.00  0.00     0.122 C 
BRANCH  22  23
HETATM   23  C           1       0.389  -4.287   1.201  0.00  0.00    -0.049 A 
HETATM   24  C           1       0.924  -5.532   1.534  0.00  0.00     0.008 A 
HETATM   25  C           1       0.075  -6.602   1.817  0.00  0.00     0.001 A 
HETATM   26  C           1      -1.308  -6.428   1.769  0.00  0.00     0.000 A 
HETATM   27  C           1      -1.843  -5.183   1.436  0.00  0.00     0.001 A 
HETATM   28  C           1      -0.994  -4.113   1.152  0.00  0.00     0.008 A 
ENDBRANCH  22  23
ENDBRANCH  21  22
ENDBRANCH   5  21
BRANCH   1  29
HETATM   29  C           1       5.242   1.584  -0.356  0.00  0.00    -0.025 A 
HETATM   30  C           1       6.574   1.666  -0.763  0.00  0.00     0.013 A 
HETATM   31  C           1       7.128   2.903  -1.091  0.00  0.00     0.007 A 
HETATM   32  C           1       6.350   4.058  -1.014  0.00  0.00    -0.062 A 
HETATM   33  C           1       6.944   5.386  -1.367  0.00  0.00     0.048 C 
HETATM   34  C           1       5.018   3.976  -0.608  0.00  0.00     0.007 A 
HETATM   35  C           1       4.464   2.739  -0.279  0.00  0.00     0.013 A 
ENDBRANCH   1  29
TORSDOF 10
