REMARK  10 active torsions:
REMARK  status: ('A' for Active; 'I' for Inactive)
REMARK    1  A    between atoms: C_1  and  C_20 
REMARK    2  A    between atoms: C_5  and  S_26 
REMARK    3  A    between atoms: C_6  and  C_8 
REMARK    4  A    between atoms: C_8  and  N_9 
REMARK    5  A    between atoms: N_9  and  C_10 
REMARK    6  A    between atoms: C_10  and  C_11 
REMARK    7  A    between atoms: C_11  and  C_12 
REMARK    8  A    between atoms: N_15  and  C_18 
REMARK    9  A    between atoms: S_26  and  C_33 
REMARK   10  A    between atoms: C_27  and  C_33 
ROOT
HETATM    1  C           1       5.448   1.746  -0.398  0.00  0.00    -0.025 A 
HETATM    2  C           1       6.780   1.828  -0.804  0.00  0.00     0.014 A 
HETATM    3  C           1       7.334   3.066  -1.133  0.00  0.00     0.023 A 
HETATM    4  C           1       6.556   4.221  -1.055  0.00  0.00     0.044 A 
HETATM    5  C           1       5.224   4.139  -0.649  0.00  0.00     0.023 A 
HETATM    6  C           1       4.670   2.901  -0.320  0.00  0.00     0.014 A 
HETATM    7  C           1       7.077   5.385  -1.365  0.00  0.00     0.099 C 
HETATM    8  N           1       7.537   6.412  -1.638  0.00  0.00    -0.191 NA
ENDROOT
BRANCH   1   9
HETATM    9  C           1       4.917   0.560  -0.082  0.00  0.00    -0.010 A 
HETATM   10  C           1       3.538   0.385  -0.038  0.00  0.00     0.025 A 
HETATM   11  C           1       3.021  -0.863   0.294  0.00  0.00     0.004 A 
HETATM   12  C           1       3.911  -1.890   0.569  0.00  0.00     0.077 A 
HETATM   13  N           1       5.254  -1.750   0.534  0.00  0.00    -0.359 N 
HETATM   14  C           1       5.727  -0.527   0.208  0.00  0.00     0.101 A 
ATOM     15  HN          1       5.879  -2.528   0.743  1.00  0.00     0.166 HD
BRANCH  11  16
HETATM   16  C           1       1.543  -1.092   0.353  0.00  0.00     0.307 C 
BRANCH  16  17
HETATM   17  N           1       0.855   0.129   0.027  0.00  0.00     0.087 N 
HETATM   18  H           1       1.100   0.849   0.706  0.00  0.00     0.316 HD
BRANCH  17  19
HETATM   19  C           1      -0.557  -0.134   0.094  0.00  0.00     0.270 C 
BRANCH  19  20
HETATM   20  C           1      -1.327   1.136  -0.245  0.00  0.00     0.034 C 
BRANCH  20  21
HETATM   21  C           1      -2.822   0.858  -0.173  0.00  0.00    -0.010 C 
HETATM   22  C           1      -3.450   1.763   0.882  0.00  0.00     0.035 C 
HETATM   23  C           1      -4.974   1.666   0.860  0.00  0.00     0.272 C 
HETATM   24  N           1      -5.510   1.958  -0.470  0.00  0.00     0.088 N 
HETATM   25  C           1      -4.971   1.043  -1.477  0.00  0.00     0.272 C 
HETATM   26  C           1      -3.446   1.118  -1.541  0.00  0.00     0.035 C 
BRANCH  24  27
HETATM   27  C           1      -6.927   1.729  -0.386  0.00  0.00     0.268 C 
HETATM   28  C           1      -7.569   2.011  -1.738  0.00  0.00     0.037 C 
ENDBRANCH  24  27
ENDBRANCH  20  21
ENDBRANCH  19  20
ENDBRANCH  17  19
ENDBRANCH  16  17
ENDBRANCH  11  16
BRANCH  12  29
HETATM   29  S           1       3.232  -3.516   1.002  0.00  0.00    -0.107 SA
BRANCH  29  30
HETATM   30  C           1       1.505  -2.976   0.855  0.00  0.00     0.122 C 
BRANCH  30  31
HETATM   31  C           1       0.595  -4.125   1.160  0.00  0.00    -0.049 A 
HETATM   32  C           1       1.130  -5.369   1.492  0.00  0.00     0.008 A 
HETATM   33  C           1       0.281  -6.440   1.776  0.00  0.00     0.001 A 
HETATM   34  C           1      -1.102  -6.265   1.727  0.00  0.00     0.000 A 
HETATM   35  C           1      -1.636  -5.021   1.395  0.00  0.00     0.001 A 
HETATM   36  C           1      -0.788  -3.950   1.111  0.00  0.00     0.008 A 
ENDBRANCH  30  31
ENDBRANCH  29  30
ENDBRANCH  12  29
ENDBRANCH   1   9
TORSDOF 10
