REMARK  9 active torsions:
REMARK  status: ('A' for Active; 'I' for Inactive)
REMARK    1  A    between atoms: C_2  and  C_18 
REMARK    2  A    between atoms: C_5  and  S_9 
REMARK    3  A    between atoms: C_6  and  C_8 
REMARK    4  A    between atoms: C_8  and  N_17 
REMARK    5  A    between atoms: S_9  and  C_10 
REMARK    6  A    between atoms: C_10  and  C_11 
REMARK    7  A    between atoms: N_17  and  C_19 
REMARK    8  A    between atoms: C_19  and  C_20 
REMARK    9  A    between atoms: C_20  and  N_21 
ROOT
HETATM    1  C           1       2.193  -4.082   0.312  0.00  0.00    -0.025 A 
HETATM    2  C           1       2.277  -5.429  -0.043  0.00  0.00     0.014 A 
HETATM    3  C           1       3.518  -6.063  -0.085  0.00  0.00     0.023 A 
HETATM    4  C           1       4.676  -5.351   0.227  0.00  0.00     0.044 A 
HETATM    5  C           1       4.592  -4.004   0.581  0.00  0.00     0.023 A 
HETATM    6  C           1       3.351  -3.370   0.624  0.00  0.00     0.014 A 
HETATM    7  C           1       5.845  -5.948   0.187  0.00  0.00     0.099 C 
HETATM    8  N           1       6.876  -6.474   0.152  0.00  0.00    -0.191 NA
ENDROOT
BRANCH   1   9
HETATM    9  C           1       1.003  -3.475   0.352  0.00  0.00    -0.010 A 
HETATM   10  C           1      -0.168  -4.209   0.456  0.00  0.00     0.101 A 
HETATM   11  N           1      -1.400  -3.657   0.501  0.00  0.00    -0.359 N 
HETATM   12  C           1      -1.461  -2.309   0.440  0.00  0.00     0.077 A 
ATOM     13  HN          1      -2.241  -4.229   0.577  1.00  0.00     0.166 HD
HETATM   14  C           1      -0.348  -1.490   0.336  0.00  0.00     0.004 A 
HETATM   15  C           1       0.907  -2.088   0.291  0.00  0.00     0.025 A 
BRANCH  12  16
HETATM   16  S           1      -3.097  -1.524   0.499  0.00  0.00    -0.107 SA
BRANCH  16  17
HETATM   17  C           1      -3.989  -3.100   0.626  0.00  0.00     0.119 C 
BRANCH  17  18
HETATM   18  C           1      -5.461  -2.837   0.700  0.00  0.00    -0.049 A 
HETATM   19  C           1      -6.355  -3.902   0.803  0.00  0.00     0.008 A 
HETATM   20  C           1      -7.727  -3.656   0.871  0.00  0.00     0.001 A 
HETATM   21  C           1      -8.203  -2.346   0.836  0.00  0.00     0.000 A 
HETATM   22  C           1      -7.309  -1.281   0.733  0.00  0.00     0.001 A 
HETATM   23  C           1      -5.937  -1.526   0.665  0.00  0.00     0.008 A 
ENDBRANCH  17  18
ENDBRANCH  16  17
ENDBRANCH  12  16
BRANCH  14  24
HETATM   24  C           1      -0.492  -0.001   0.274  0.00  0.00     0.311 C 
BRANCH  24  25
HETATM   25  N           1       0.808   0.603   0.169  0.00  0.00     0.089 N 
HETATM   26  H           1       1.361   0.364   0.992  0.00  0.00     0.316 HD
BRANCH  25  27
HETATM   27  C           1       0.625   2.028   0.111  0.00  0.00     0.300 C 
BRANCH  27  28
HETATM   28  C           1       1.982   2.711  -0.001  0.00  0.00     0.302 C 
BRANCH  28  29
HETATM   29  N           1       1.798   4.136  -0.058  0.00  0.00     0.093 N 
HETATM   30  C           1       3.139   4.738  -0.165  0.00  0.00     0.302 C 
HETATM   31  C           1       3.099   6.246  -0.492  0.00  0.00     0.302 C 
HETATM   32  N           1       2.327   6.550  -1.710  0.00  0.00     0.087 N 
HETATM   33  C           1       2.163   7.978  -1.757  0.00  0.00     0.310 C 
HETATM   34  C           1       0.986   5.948  -1.603  0.00  0.00     0.302 C 
HETATM   35  C           1       1.026   4.440  -1.276  0.00  0.00     0.302 C 
ENDBRANCH  28  29
ENDBRANCH  27  28
ENDBRANCH  25  27
ENDBRANCH  24  25
ENDBRANCH  14  24
ENDBRANCH   1   9
TORSDOF 9
