REMARK  9 active torsions:
REMARK  status: ('A' for Active; 'I' for Inactive)
REMARK    1  A    between atoms: C_2  and  C_18 
REMARK    2  A    between atoms: C_5  and  S_9 
REMARK    3  A    between atoms: C_6  and  C_8 
REMARK    4  A    between atoms: C_8  and  N_17 
REMARK    5  A    between atoms: S_9  and  C_10 
REMARK    6  A    between atoms: C_10  and  C_11 
REMARK    7  A    between atoms: N_17  and  C_19 
REMARK    8  A    between atoms: C_19  and  C_20 
REMARK    9  A    between atoms: C_20  and  N_21 
ROOT
HETATM    1  C           1      -0.354  -4.024   0.450  0.00  0.00     0.101 A 
HETATM    2  C           1       0.816  -3.290   0.347  0.00  0.00    -0.010 A 
HETATM    3  N           1      -1.586  -3.472   0.496  0.00  0.00    -0.359 N 
ATOM      4  HN          1      -2.427  -4.044   0.573  1.00  0.00     0.166 HD
HETATM    5  C           1      -1.648  -2.124   0.435  0.00  0.00     0.077 A 
HETATM    6  C           1      -0.535  -1.305   0.331  0.00  0.00     0.004 A 
HETATM    7  C           1       0.720  -1.903   0.286  0.00  0.00     0.025 A 
ENDROOT
BRANCH   6   8
HETATM    8  C           1      -0.679   0.184   0.268  0.00  0.00     0.311 C 
BRANCH   8   9
HETATM    9  N           1       0.622   0.788   0.163  0.00  0.00     0.089 N 
HETATM   10  H           1       1.175   0.549   0.986  0.00  0.00     0.316 HD
BRANCH   9  11
HETATM   11  C           1       0.439   2.213   0.106  0.00  0.00     0.300 C 
BRANCH  11  12
HETATM   12  C           1       1.795   2.896  -0.006  0.00  0.00     0.302 C 
BRANCH  12  13
HETATM   13  N           1       1.612   4.321  -0.063  0.00  0.00     0.093 N 
HETATM   14  C           1       2.953   4.923  -0.170  0.00  0.00     0.302 C 
HETATM   15  C           1       2.912   6.431  -0.497  0.00  0.00     0.302 C 
HETATM   16  N           1       2.140   6.735  -1.715  0.00  0.00     0.087 N 
HETATM   17  C           1       1.976   8.163  -1.762  0.00  0.00     0.310 C 
HETATM   18  C           1       0.799   6.133  -1.608  0.00  0.00     0.302 C 
HETATM   19  C           1       0.840   4.625  -1.281  0.00  0.00     0.302 C 
ENDBRANCH  12  13
ENDBRANCH  11  12
ENDBRANCH   9  11
ENDBRANCH   8   9
ENDBRANCH   6   8
BRANCH   5  20
HETATM   20  S           1      -3.284  -1.339   0.493  0.00  0.00    -0.107 SA
BRANCH  20  21
HETATM   21  C           1      -4.175  -2.915   0.621  0.00  0.00     0.119 C 
BRANCH  21  22
HETATM   22  C           1      -5.647  -2.652   0.694  0.00  0.00    -0.049 A 
HETATM   23  C           1      -6.542  -3.717   0.797  0.00  0.00     0.008 A 
HETATM   24  C           1      -7.913  -3.471   0.866  0.00  0.00     0.001 A 
HETATM   25  C           1      -8.390  -2.161   0.831  0.00  0.00     0.000 A 
HETATM   26  C           1      -7.495  -1.096   0.728  0.00  0.00     0.001 A 
HETATM   27  C           1      -6.124  -1.341   0.659  0.00  0.00     0.008 A 
ENDBRANCH  21  22
ENDBRANCH  20  21
ENDBRANCH   5  20
BRANCH   2  28
HETATM   28  C           1       2.007  -3.897   0.306  0.00  0.00    -0.025 A 
HETATM   29  C           1       2.090  -5.244  -0.048  0.00  0.00     0.013 A 
HETATM   30  C           1       3.332  -5.878  -0.090  0.00  0.00     0.007 A 
HETATM   31  C           1       4.490  -5.166   0.222  0.00  0.00    -0.062 A 
HETATM   32  C           1       5.822  -5.846   0.176  0.00  0.00     0.048 C 
HETATM   33  C           1       4.406  -3.819   0.576  0.00  0.00     0.007 A 
HETATM   34  C           1       3.164  -3.185   0.618  0.00  0.00     0.013 A 
ENDBRANCH   2  28
TORSDOF 9
