REMARK  9 active torsions:
REMARK  status: ('A' for Active; 'I' for Inactive)
REMARK    1  A    between atoms: C_5  and  S_23 
REMARK    2  A    between atoms: C_6  and  C_8 
REMARK    3  A    between atoms: C_8  and  N_9 
REMARK    4  A    between atoms: N_9  and  C_10 
REMARK    5  A    between atoms: C_10  and  C_11 
REMARK    6  A    between atoms: C_11  and  C_12 
REMARK    7  A    between atoms: N_15  and  C_18 
REMARK    8  A    between atoms: S_23  and  C_30 
REMARK    9  A    between atoms: C_24  and  C_30 
ROOT
HETATM    1  C           1      -1.205  -2.371   2.175  0.00  0.00     0.310 C 
ENDROOT
BRANCH   1   2
HETATM    2  C           1      -2.217  -3.472   2.101  0.00  0.00     0.003 A 
HETATM    3  C           1      -3.128  -3.532   1.059  0.00  0.00     0.077 A 
HETATM    4  N           1      -4.065  -4.497   0.933  0.00  0.00    -0.360 N 
HETATM    5  C           1      -4.089  -5.445   1.896  0.00  0.00     0.089 A 
ATOM      6  HN          1      -4.720  -4.509   0.152  1.00  0.00     0.166 HD
HETATM    7  C           1      -3.221  -5.470   2.975  0.00  0.00     0.018 A 
HETATM    8  C           1      -2.267  -4.463   3.076  0.00  0.00     0.013 A 
BRANCH   3   9
HETATM    9  S           1      -3.059  -2.238  -0.212  0.00  0.00    -0.107 SA
BRANCH   9  10
HETATM   10  C           1      -4.441  -2.925  -1.168  0.00  0.00     0.119 C 
BRANCH  10  11
HETATM   11  C           1      -4.692  -2.068  -2.369  0.00  0.00    -0.049 A 
HETATM   12  C           1      -5.713  -2.400  -3.261  0.00  0.00     0.008 A 
HETATM   13  C           1      -5.947  -1.601  -4.380  0.00  0.00     0.001 A 
HETATM   14  C           1      -5.161  -0.472  -4.609  0.00  0.00     0.000 A 
HETATM   15  C           1      -4.140  -0.141  -3.717  0.00  0.00     0.001 A 
HETATM   16  C           1      -3.906  -0.939  -2.598  0.00  0.00     0.008 A 
ENDBRANCH  10  11
ENDBRANCH   9  10
ENDBRANCH   3   9
ENDBRANCH   1   2
BRANCH   1  17
HETATM   17  N           1      -1.372  -1.490   1.051  0.00  0.00     0.087 N 
HETATM   18  H           1      -1.223  -2.010   0.187  0.00  0.00     0.316 HD
BRANCH  17  19
HETATM   19  C           1      -0.384  -0.450   1.161  0.00  0.00     0.270 C 
BRANCH  19  20
HETATM   20  C           1      -0.524   0.510  -0.013  0.00  0.00     0.034 C 
BRANCH  20  21
HETATM   21  C           1       0.522   1.611   0.103  0.00  0.00    -0.010 C 
HETATM   22  C           1       1.357   1.378   1.358  0.00  0.00     0.035 C 
HETATM   23  C           1       2.542   2.339   1.421  0.00  0.00     0.273 C 
HETATM   24  N           1       3.368   2.250   0.215  0.00  0.00     0.093 N 
HETATM   25  C           1       2.591   2.547  -0.989  0.00  0.00     0.273 C 
HETATM   26  C           1       1.407   1.594  -1.139  0.00  0.00     0.035 C 
BRANCH  24  27
HETATM   27  C           1       4.375   3.268   0.348  0.00  0.00     0.223 C 
HETATM   28  C           1       5.118   3.129   1.668  0.00  0.00     0.036 C 
HETATM   29  C           1       6.520   3.681   1.409  0.00  0.00     0.002 C 
HETATM   30  C           1       6.634   3.869  -0.103  0.00  0.00     0.002 C 
HETATM   31  C           1       5.469   3.088  -0.691  0.00  0.00     0.036 C 
ENDBRANCH  24  27
ENDBRANCH  20  21
ENDBRANCH  19  20
ENDBRANCH  17  19
ENDBRANCH   1  17
TORSDOF 9
