REMARK  8 active torsions:
REMARK  status: ('A' for Active; 'I' for Inactive)
REMARK    1  A    between atoms: C_5  and  S_9 
REMARK    2  A    between atoms: C_6  and  C_8 
REMARK    3  A    between atoms: C_8  and  N_17 
REMARK    4  A    between atoms: S_9  and  C_10 
REMARK    5  A    between atoms: C_10  and  C_11 
REMARK    6  A    between atoms: N_17  and  C_19 
REMARK    7  A    between atoms: C_19  and  C_20 
REMARK    8  A    between atoms: C_20  and  N_21 
ROOT
HETATM    1  C           1       0.670  -5.252   0.507  0.00  0.00     0.108 A 
HETATM    2  C           1       1.840  -4.517   0.404  0.00  0.00     0.027 A 
HETATM    3  N           1      -0.562  -4.699   0.553  0.00  0.00    -0.359 N 
ATOM      4  HN          1      -1.403  -5.271   0.630  1.00  0.00     0.166 HD
HETATM    5  C           1      -0.624  -3.351   0.492  0.00  0.00     0.078 A 
HETATM    6  C           1       0.489  -2.532   0.388  0.00  0.00     0.004 A 
HETATM    7  C           1       1.744  -3.131   0.343  0.00  0.00     0.032 A 
HETATM    8 Br           1       3.515  -5.372   0.347  0.00  0.00    -0.050 Br
ENDROOT
BRANCH   6   9
HETATM    9  C           1       0.345  -1.044   0.325  0.00  0.00     0.311 C 
BRANCH   9  10
HETATM   10  N           1       1.646  -0.439   0.220  0.00  0.00     0.089 N 
HETATM   11  H           1       2.199  -0.678   1.043  0.00  0.00     0.316 HD
BRANCH  10  12
HETATM   12  C           1       1.462   0.986   0.163  0.00  0.00     0.300 C 
BRANCH  12  13
HETATM   13  C           1       2.819   1.669   0.051  0.00  0.00     0.302 C 
BRANCH  13  14
HETATM   14  N           1       2.636   3.094  -0.006  0.00  0.00     0.093 N 
HETATM   15  C           1       3.977   3.695  -0.113  0.00  0.00     0.302 C 
HETATM   16  C           1       3.936   5.203  -0.440  0.00  0.00     0.302 C 
HETATM   17  N           1       3.164   5.507  -1.658  0.00  0.00     0.087 N 
HETATM   18  C           1       3.000   6.935  -1.705  0.00  0.00     0.310 C 
HETATM   19  C           1       1.823   4.906  -1.551  0.00  0.00     0.302 C 
HETATM   20  C           1       1.864   3.397  -1.224  0.00  0.00     0.302 C 
ENDBRANCH  13  14
ENDBRANCH  12  13
ENDBRANCH  10  12
ENDBRANCH   9  10
ENDBRANCH   6   9
BRANCH   5  21
HETATM   21  S           1      -2.260  -2.567   0.550  0.00  0.00    -0.107 SA
BRANCH  21  22
HETATM   22  C           1      -3.151  -4.142   0.678  0.00  0.00     0.119 C 
BRANCH  22  23
HETATM   23  C           1      -4.623  -3.879   0.751  0.00  0.00    -0.049 A 
HETATM   24  C           1      -5.518  -4.944   0.854  0.00  0.00     0.008 A 
HETATM   25  C           1      -6.889  -4.699   0.923  0.00  0.00     0.001 A 
HETATM   26  C           1      -7.366  -3.388   0.888  0.00  0.00     0.000 A 
HETATM   27  C           1      -6.471  -2.323   0.785  0.00  0.00     0.001 A 
HETATM   28  C           1      -5.100  -2.569   0.716  0.00  0.00     0.008 A 
ENDBRANCH  22  23
ENDBRANCH  21  22
ENDBRANCH   5  21
TORSDOF 8
