REMARK  9 active torsions:
REMARK  status: ('A' for Active; 'I' for Inactive)
REMARK    1  A    between atoms: C_5  and  S_20 
REMARK    2  A    between atoms: C_6  and  C_8 
REMARK    3  A    between atoms: C_8  and  N_9 
REMARK    4  A    between atoms: N_9  and  C_10 
REMARK    5  A    between atoms: C_10  and  C_11 
REMARK    6  A    between atoms: C_11  and  C_12 
REMARK    7  A    between atoms: N_15  and  C_18 
REMARK    8  A    between atoms: S_20  and  C_27 
REMARK    9  A    between atoms: C_21  and  C_27 
ROOT
HETATM    1  C           1       6.133   1.264  -0.256  0.00  0.00     0.018 A 
HETATM    2  C           1       6.942   0.177   0.034  0.00  0.00     0.089 A 
HETATM    3  N           1       6.469  -1.046   0.360  0.00  0.00    -0.360 N 
ATOM      4  HN          1       7.094  -1.824   0.569  1.00  0.00     0.166 HD
HETATM    5  C           1       5.126  -1.186   0.395  0.00  0.00     0.077 A 
HETATM    6  C           1       4.237  -0.160   0.120  0.00  0.00     0.003 A 
HETATM    7  C           1       4.754   1.088  -0.212  0.00  0.00     0.013 A 
ENDROOT
BRANCH   6   8
HETATM    8  C           1       2.758  -0.388   0.179  0.00  0.00     0.307 C 
BRANCH   8   9
HETATM    9  N           1       2.071   0.832  -0.148  0.00  0.00     0.087 N 
HETATM   10  H           1       2.316   1.552   0.532  0.00  0.00     0.316 HD
BRANCH   9  11
HETATM   11  C           1       0.659   0.570  -0.080  0.00  0.00     0.270 C 
BRANCH  11  12
HETATM   12  C           1      -0.111   1.839  -0.419  0.00  0.00     0.034 C 
BRANCH  12  13
HETATM   13  C           1      -1.607   1.562  -0.348  0.00  0.00    -0.010 C 
HETATM   14  C           1      -2.235   2.467   0.708  0.00  0.00     0.035 C 
HETATM   15  C           1      -3.759   2.369   0.686  0.00  0.00     0.272 C 
HETATM   16  N           1      -4.295   2.661  -0.645  0.00  0.00     0.088 N 
HETATM   17  C           1      -3.755   1.746  -1.652  0.00  0.00     0.272 C 
HETATM   18  C           1      -2.231   1.821  -1.715  0.00  0.00     0.035 C 
BRANCH  16  19
HETATM   19  C           1      -5.712   2.432  -0.560  0.00  0.00     0.268 C 
HETATM   20  C           1      -6.354   2.714  -1.913  0.00  0.00     0.037 C 
ENDBRANCH  16  19
ENDBRANCH  12  13
ENDBRANCH  11  12
ENDBRANCH   9  11
ENDBRANCH   8   9
ENDBRANCH   6   8
BRANCH   5  21
HETATM   21  S           1       4.447  -2.813   0.827  0.00  0.00    -0.107 SA
BRANCH  21  22
HETATM   22  C           1       2.721  -2.273   0.681  0.00  0.00     0.122 C 
BRANCH  22  23
HETATM   23  C           1       1.810  -3.421   0.986  0.00  0.00    -0.049 A 
HETATM   24  C           1       2.345  -4.666   1.318  0.00  0.00     0.008 A 
HETATM   25  C           1       1.497  -5.736   1.602  0.00  0.00     0.001 A 
HETATM   26  C           1       0.114  -5.562   1.553  0.00  0.00     0.000 A 
HETATM   27  C           1      -0.421  -4.317   1.221  0.00  0.00     0.001 A 
HETATM   28  C           1       0.427  -3.247   0.937  0.00  0.00     0.008 A 
ENDBRANCH  22  23
ENDBRANCH  21  22
ENDBRANCH   5  21
TORSDOF 9
