REMARK  10 active torsions:
REMARK  status: ('A' for Active; 'I' for Inactive)
REMARK    1  A    between atoms: C_2  and  C_18 
REMARK    2  A    between atoms: C_5  and  S_9 
REMARK    3  A    between atoms: C_6  and  C_8 
REMARK    4  A    between atoms: C_8  and  N_17 
REMARK    5  A    between atoms: S_9  and  C_10 
REMARK    6  A    between atoms: C_10  and  C_11 
REMARK    7  A    between atoms: N_17  and  C_19 
REMARK    8  A    between atoms: C_19  and  C_20 
REMARK    9  A    between atoms: C_20  and  N_21 
REMARK   10  A    between atoms: C_30  and  O_33 
ROOT
HETATM    1  C           1      -0.490  -4.013   0.422  0.00  0.00     0.101 A 
HETATM    2  C           1       0.680  -3.278   0.318  0.00  0.00    -0.010 A 
HETATM    3  N           1      -1.722  -3.460   0.468  0.00  0.00    -0.359 N 
ATOM      4  HN          1      -2.563  -4.032   0.545  1.00  0.00     0.166 HD
HETATM    5  C           1      -1.784  -2.112   0.407  0.00  0.00     0.077 A 
HETATM    6  C           1      -0.671  -1.294   0.303  0.00  0.00     0.004 A 
HETATM    7  C           1       0.584  -1.892   0.258  0.00  0.00     0.025 A 
ENDROOT
BRANCH   6   8
HETATM    8  C           1      -0.815   0.195   0.240  0.00  0.00     0.311 C 
BRANCH   8   9
HETATM    9  N           1       0.486   0.799   0.135  0.00  0.00     0.089 N 
HETATM   10  H           1       1.039   0.560   0.958  0.00  0.00     0.316 HD
BRANCH   9  11
HETATM   11  C           1       0.302   2.224   0.078  0.00  0.00     0.300 C 
BRANCH  11  12
HETATM   12  C           1       1.659   2.907  -0.034  0.00  0.00     0.302 C 
BRANCH  12  13
HETATM   13  N           1       1.476   4.332  -0.092  0.00  0.00     0.093 N 
HETATM   14  C           1       2.817   4.934  -0.199  0.00  0.00     0.302 C 
HETATM   15  C           1       2.776   6.442  -0.525  0.00  0.00     0.302 C 
HETATM   16  N           1       2.004   6.746  -1.743  0.00  0.00     0.087 N 
HETATM   17  C           1       1.840   8.174  -1.790  0.00  0.00     0.310 C 
HETATM   18  C           1       0.663   6.144  -1.636  0.00  0.00     0.302 C 
HETATM   19  C           1       0.704   4.636  -1.309  0.00  0.00     0.302 C 
ENDBRANCH  12  13
ENDBRANCH  11  12
ENDBRANCH   9  11
ENDBRANCH   8   9
ENDBRANCH   6   8
BRANCH   5  20
HETATM   20  S           1      -3.420  -1.328   0.465  0.00  0.00    -0.107 SA
BRANCH  20  21
HETATM   21  C           1      -4.311  -2.904   0.592  0.00  0.00     0.119 C 
BRANCH  21  22
HETATM   22  C           1      -5.783  -2.640   0.666  0.00  0.00    -0.049 A 
HETATM   23  C           1      -6.678  -3.705   0.769  0.00  0.00     0.008 A 
HETATM   24  C           1      -8.049  -3.460   0.837  0.00  0.00     0.001 A 
HETATM   25  C           1      -8.526  -2.150   0.803  0.00  0.00     0.000 A 
HETATM   26  C           1      -7.631  -1.085   0.700  0.00  0.00     0.001 A 
HETATM   27  C           1      -6.260  -1.330   0.631  0.00  0.00     0.008 A 
ENDBRANCH  21  22
ENDBRANCH  20  21
ENDBRANCH   5  20
BRANCH   2  28
HETATM   28  C           1       1.870  -3.886   0.278  0.00  0.00    -0.024 A 
HETATM   29  C           1       1.954  -5.233  -0.076  0.00  0.00     0.015 A 
HETATM   30  C           1       3.196  -5.867  -0.119  0.00  0.00     0.037 A 
HETATM   31  C           1       4.354  -5.154   0.193  0.00  0.00     0.068 A 
HETATM   32  C           1       4.270  -3.808   0.548  0.00  0.00     0.037 A 
HETATM   33  C           1       3.028  -3.174   0.590  0.00  0.00     0.015 A 
BRANCH  31  34
HETATM   34  O           1       5.560  -5.770   0.152  0.00  0.00    -0.356 OA
HETATM   35  C           1       6.586  -4.880   0.499  0.00  0.00     0.210 C 
ENDBRANCH  31  34
ENDBRANCH   2  28
TORSDOF 10
