REMARK  9 active torsions:
REMARK  status: ('A' for Active; 'I' for Inactive)
REMARK    1  A    between atoms: C_5  and  S_23 
REMARK    2  A    between atoms: C_6  and  C_8 
REMARK    3  A    between atoms: C_8  and  N_9 
REMARK    4  A    between atoms: N_9  and  C_10 
REMARK    5  A    between atoms: C_10  and  C_11 
REMARK    6  A    between atoms: C_14  and  C_22 
REMARK    7  A    between atoms: N_17  and  C_22 
REMARK    8  A    between atoms: S_23  and  C_30 
REMARK    9  A    between atoms: C_24  and  C_30 
ROOT
HETATM    1  C           1       1.773   4.090  -0.789  0.00  0.00     0.311 C 
ENDROOT
BRANCH   1   2
HETATM    2  C           1       3.211   3.688  -0.680  0.00  0.00     0.003 A 
HETATM    3  C           1       3.563   2.393  -0.334  0.00  0.00     0.077 A 
HETATM    4  N           1       4.839   1.967  -0.219  0.00  0.00    -0.360 N 
HETATM    5  C           1       5.806   2.879  -0.460  0.00  0.00     0.089 A 
ATOM      6  HN          1       5.062   1.005   0.037  1.00  0.00     0.166 HD
HETATM    7  C           1       5.554   4.195  -0.811  0.00  0.00     0.018 A 
HETATM    8  C           1       4.229   4.604  -0.922  0.00  0.00     0.013 A 
BRANCH   3   9
HETATM    9  S           1       2.232   1.200  -0.018  0.00  0.00    -0.107 SA
BRANCH   9  10
HETATM   10  C           1       3.369  -0.166   0.347  0.00  0.00     0.119 C 
BRANCH  10  11
HETATM   11  C           1       2.583  -1.397   0.674  0.00  0.00    -0.049 A 
HETATM   12  C           1       2.820  -2.079   1.868  0.00  0.00     0.008 A 
HETATM   13  C           1       2.087  -3.226   2.172  0.00  0.00     0.001 A 
HETATM   14  C           1       1.118  -3.692   1.284  0.00  0.00     0.000 A 
HETATM   15  C           1       0.882  -3.010   0.090  0.00  0.00     0.001 A 
HETATM   16  C           1       1.614  -1.862  -0.214  0.00  0.00     0.008 A 
ENDBRANCH  10  11
ENDBRANCH   9  10
ENDBRANCH   3   9
ENDBRANCH   1   2
BRANCH   1  17
HETATM   17  N           1       0.934   2.961  -0.489  0.00  0.00     0.091 N 
HETATM   18  H           1       1.116   2.215  -1.161  0.00  0.00     0.316 HD
BRANCH  17  19
HETATM   19  C           1      -0.434   3.389  -0.606  0.00  0.00     0.308 C 
BRANCH  19  20
HETATM   20  C           1      -1.344   2.240  -0.301  0.00  0.00    -0.030 A 
HETATM   21  C           1      -0.809   0.995   0.032  0.00  0.00     0.009 A 
HETATM   22  C           1      -1.658  -0.075   0.316  0.00  0.00     0.009 A 
HETATM   23  C           1      -3.041   0.100   0.267  0.00  0.00    -0.030 A 
HETATM   24  C           1      -3.575   1.344  -0.065  0.00  0.00     0.009 A 
HETATM   25  C           1      -2.727   2.414  -0.349  0.00  0.00     0.009 A 
BRANCH  23  26
HETATM   26  C           1      -3.951  -1.049   0.572  0.00  0.00     0.311 C 
BRANCH  26  27
HETATM   27  N           1      -3.167  -2.213   0.883  0.00  0.00     0.092 N 
HETATM   28  C           1      -4.068  -3.324   1.178  0.00  0.00     0.273 C 
HETATM   29  C           1      -4.598  -3.731  -0.186  0.00  0.00     0.032 C 
HETATM   30  C           1      -3.539  -3.267  -1.179  0.00  0.00     0.032 C 
HETATM   31  C           1      -2.462  -2.612  -0.332  0.00  0.00     0.273 C 
ENDBRANCH  26  27
ENDBRANCH  23  26
ENDBRANCH  19  20
ENDBRANCH  17  19
ENDBRANCH   1  17
TORSDOF 9
