REMARK  9 active torsions:
REMARK  status: ('A' for Active; 'I' for Inactive)
REMARK    1  A    between atoms: C_5  and  S_21 
REMARK    2  A    between atoms: C_6  and  C_8 
REMARK    3  A    between atoms: C_8  and  N_9 
REMARK    4  A    between atoms: N_9  and  C_10 
REMARK    5  A    between atoms: C_10  and  C_11 
REMARK    6  A    between atoms: C_11  and  C_12 
REMARK    7  A    between atoms: N_15  and  C_18 
REMARK    8  A    between atoms: S_21  and  C_28 
REMARK    9  A    between atoms: C_22  and  C_28 
ROOT
HETATM    1  C           1       6.127   1.252  -0.253  0.00  0.00     0.027 A 
HETATM    2  C           1       6.937   0.165   0.038  0.00  0.00     0.108 A 
HETATM    3  N           1       6.464  -1.058   0.363  0.00  0.00    -0.359 N 
ATOM      4  HN          1       7.089  -1.836   0.571  1.00  0.00     0.166 HD
HETATM    5  C           1       5.121  -1.198   0.398  0.00  0.00     0.078 A 
HETATM    6  C           1       4.231  -0.172   0.123  0.00  0.00     0.004 A 
HETATM    7  C           1       4.748   1.076  -0.208  0.00  0.00     0.032 A 
HETATM    8 Br           1       6.874   2.920  -0.697  0.00  0.00    -0.050 Br
ENDROOT
BRANCH   6   9
HETATM    9  C           1       2.753  -0.400   0.182  0.00  0.00     0.307 C 
BRANCH   9  10
HETATM   10  N           1       2.065   0.820  -0.144  0.00  0.00     0.087 N 
HETATM   11  H           1       2.310   1.540   0.535  0.00  0.00     0.316 HD
BRANCH  10  12
HETATM   12  C           1       0.653   0.558  -0.077  0.00  0.00     0.270 C 
BRANCH  12  13
HETATM   13  C           1      -0.117   1.827  -0.416  0.00  0.00     0.034 C 
BRANCH  13  14
HETATM   14  C           1      -1.612   1.549  -0.344  0.00  0.00    -0.010 C 
HETATM   15  C           1      -2.240   2.455   0.711  0.00  0.00     0.035 C 
HETATM   16  C           1      -3.764   2.357   0.689  0.00  0.00     0.272 C 
HETATM   17  N           1      -4.300   2.649  -0.641  0.00  0.00     0.088 N 
HETATM   18  C           1      -3.761   1.734  -1.648  0.00  0.00     0.272 C 
HETATM   19  C           1      -2.236   1.809  -1.712  0.00  0.00     0.035 C 
BRANCH  17  20
HETATM   20  C           1      -5.717   2.420  -0.557  0.00  0.00     0.268 C 
HETATM   21  C           1      -6.359   2.702  -1.909  0.00  0.00     0.037 C 
ENDBRANCH  17  20
ENDBRANCH  13  14
ENDBRANCH  12  13
ENDBRANCH  10  12
ENDBRANCH   9  10
ENDBRANCH   6   9
BRANCH   5  22
HETATM   22  S           1       4.442  -2.825   0.831  0.00  0.00    -0.107 SA
BRANCH  22  23
HETATM   23  C           1       2.715  -2.285   0.684  0.00  0.00     0.122 C 
BRANCH  23  24
HETATM   24  C           1       1.805  -3.434   0.989  0.00  0.00    -0.049 A 
HETATM   25  C           1       2.340  -4.678   1.321  0.00  0.00     0.008 A 
HETATM   26  C           1       1.491  -5.748   1.605  0.00  0.00     0.001 A 
HETATM   27  C           1       0.108  -5.574   1.557  0.00  0.00     0.000 A 
HETATM   28  C           1      -0.426  -4.329   1.224  0.00  0.00     0.001 A 
HETATM   29  C           1       0.422  -3.259   0.940  0.00  0.00     0.008 A 
ENDBRANCH  23  24
ENDBRANCH  22  23
ENDBRANCH   5  22
TORSDOF 9
