REMARK  10 active torsions:
REMARK  status: ('A' for Active; 'I' for Inactive)
REMARK    1  A    between atoms: C_2  and  C_18 
REMARK    2  A    between atoms: C_5  and  S_9 
REMARK    3  A    between atoms: C_6  and  C_8 
REMARK    4  A    between atoms: C_8  and  N_17 
REMARK    5  A    between atoms: S_9  and  C_10 
REMARK    6  A    between atoms: C_10  and  C_11 
REMARK    7  A    between atoms: N_17  and  C_19 
REMARK    8  A    between atoms: C_19  and  C_20 
REMARK    9  A    between atoms: C_20  and  N_21 
REMARK   10  A    between atoms: C_30  and  N_33 
ROOT
HETATM    1  C           1      -0.812  -3.588   0.439  0.00  0.00     0.101 A 
HETATM    2  C           1       0.359  -2.854   0.336  0.00  0.00    -0.010 A 
HETATM    3  N           1      -2.044  -3.036   0.485  0.00  0.00    -0.359 N 
ATOM      4  HN          1      -2.885  -3.608   0.562  1.00  0.00     0.166 HD
HETATM    5  C           1      -2.106  -1.688   0.424  0.00  0.00     0.077 A 
HETATM    6  C           1      -0.992  -0.869   0.320  0.00  0.00     0.004 A 
HETATM    7  C           1       0.263  -1.467   0.275  0.00  0.00     0.025 A 
ENDROOT
BRANCH   6   8
HETATM    8  C           1      -1.137   0.620   0.257  0.00  0.00     0.311 C 
BRANCH   8   9
HETATM    9  N           1       0.164   1.224   0.152  0.00  0.00     0.089 N 
HETATM   10  H           1       0.717   0.985   0.976  0.00  0.00     0.316 HD
BRANCH   9  11
HETATM   11  C           1      -0.019   2.649   0.095  0.00  0.00     0.300 C 
BRANCH  11  12
HETATM   12  C           1       1.337   3.332  -0.017  0.00  0.00     0.302 C 
BRANCH  12  13
HETATM   13  N           1       1.154   4.757  -0.074  0.00  0.00     0.093 N 
HETATM   14  C           1       2.495   5.359  -0.181  0.00  0.00     0.302 C 
HETATM   15  C           1       2.454   6.867  -0.508  0.00  0.00     0.302 C 
HETATM   16  N           1       1.683   7.171  -1.726  0.00  0.00     0.087 N 
HETATM   17  C           1       1.519   8.599  -1.773  0.00  0.00     0.310 C 
HETATM   18  C           1       0.342   6.569  -1.619  0.00  0.00     0.302 C 
HETATM   19  C           1       0.382   5.061  -1.292  0.00  0.00     0.302 C 
ENDBRANCH  12  13
ENDBRANCH  11  12
ENDBRANCH   9  11
ENDBRANCH   8   9
ENDBRANCH   6   8
BRANCH   5  20
HETATM   20  S           1      -3.741  -0.903   0.482  0.00  0.00    -0.107 SA
BRANCH  20  21
HETATM   21  C           1      -4.633  -2.479   0.610  0.00  0.00     0.119 C 
BRANCH  21  22
HETATM   22  C           1      -6.105  -2.215   0.683  0.00  0.00    -0.049 A 
HETATM   23  C           1      -6.999  -3.281   0.787  0.00  0.00     0.008 A 
HETATM   24  C           1      -8.371  -3.035   0.855  0.00  0.00     0.001 A 
HETATM   25  C           1      -8.847  -1.725   0.820  0.00  0.00     0.000 A 
HETATM   26  C           1      -7.953  -0.660   0.717  0.00  0.00     0.001 A 
HETATM   27  C           1      -6.581  -0.905   0.649  0.00  0.00     0.008 A 
ENDBRANCH  21  22
ENDBRANCH  20  21
ENDBRANCH   5  20
BRANCH   2  28
HETATM   28  C           1       1.549  -3.461   0.295  0.00  0.00    -0.025 A 
HETATM   29  C           1       1.633  -4.808  -0.059  0.00  0.00     0.014 A 
HETATM   30  C           1       2.874  -5.442  -0.101  0.00  0.00     0.030 A 
HETATM   31  C           1       4.032  -4.730   0.211  0.00  0.00     0.029 A 
HETATM   32  C           1       3.948  -3.383   0.565  0.00  0.00     0.030 A 
HETATM   33  C           1       2.707  -2.749   0.607  0.00  0.00     0.014 A 
BRANCH  31  34
HETATM   34  N           1       5.159  -5.305   0.173  0.00  0.00    -0.390 N 
HETATM   35  C           1       6.379  -4.554   0.501  0.00  0.00     0.149 C 
HETATM   36  C           1       5.247  -6.724  -0.201  0.00  0.00     0.149 C 
ENDBRANCH  31  34
ENDBRANCH   2  28
TORSDOF 10
