MODEL 1
REMARK VINA RESULT:      -7.3      0.000      0.000
REMARK  9 active torsions:
REMARK  status: ('A' for Active; 'I' for Inactive)
REMARK    1  A    between atoms: C_4  and  S_25 
REMARK    2  A    between atoms: C_5  and  C_7 
REMARK    3  A    between atoms: C_7  and  N_8 
REMARK    4  A    between atoms: N_8  and  C_9 
REMARK    5  A    between atoms: C_9  and  C_10 
REMARK    6  A    between atoms: C_10  and  C_11 
REMARK    7  A    between atoms: N_14  and  C_17 
REMARK    8  A    between atoms: S_25  and  C_32 
REMARK    9  A    between atoms: C_26  and  C_32 
ROOT
HETATM    1  C           1     175.405 185.391 272.535  0.00  0.00    -0.008 A 
HETATM    2  C           1     176.198 185.473 271.402  0.00  0.00     0.130 A 
HETATM    3  N           1     175.722 185.365 270.142  0.00  0.00    -0.253 NA
HETATM    4  C           1     174.392 185.166 270.013  0.00  0.00     0.101 A 
HETATM    5  C           1     173.519 185.070 271.084  0.00  0.00     0.006 A 
HETATM    6  C           1     174.040 185.185 272.369  0.00  0.00     0.025 A 
HETATM    7  C           1     175.939 185.505 273.756  0.00  0.00    -0.025 A 
HETATM    8  C           1     177.203 186.073 273.914  0.00  0.00     0.012 A 
HETATM    9  C           1     177.760 186.192 275.187  0.00  0.00     0.001 A 
HETATM   10  C           1     177.053 185.744 276.302  0.00  0.00     0.000 A 
HETATM   11  C           1     175.788 185.176 276.144  0.00  0.00     0.001 A 
HETATM   12  C           1     175.231 185.056 274.871  0.00  0.00     0.012 A 
ENDROOT
BRANCH   5  13
HETATM   13  C           1     172.055 184.849 270.866  0.00  0.00     0.308 C 
BRANCH  13  14
HETATM   14  N           1     171.312 185.928 271.459  0.00  0.00     0.087 N 
HETATM   15  H           1     170.371 185.606 271.686  0.00  0.00     0.316 HD
BRANCH  14  16
HETATM   16  C           1     171.235 186.989 270.492  0.00  0.00     0.270 C 
BRANCH  16  17
HETATM   17  C           1     170.997 188.312 271.208  0.00  0.00     0.034 C 
BRANCH  17  18
HETATM   18  C           1     172.119 189.285 270.867  0.00  0.00    -0.010 C 
HETATM   19  C           1     171.580 190.711 270.927  0.00  0.00     0.035 C 
HETATM   20  C           1     172.706 191.733 270.784  0.00  0.00     0.272 C 
HETATM   21  N           1     173.751 191.523 271.787  0.00  0.00     0.088 N 
HETATM   22  C           1     174.327 190.181 271.686  0.00  0.00     0.272 C 
HETATM   23  C           1     173.261 189.101 271.861  0.00  0.00     0.035 C 
BRANCH  21  24
HETATM   24  C           1     174.791 192.468 271.481  0.00  0.00     0.268 C 
HETATM   25  C           1     175.771 191.845 270.496  0.00  0.00     0.037 C 
ENDBRANCH  21  24
ENDBRANCH  17  18
ENDBRANCH  16  17
ENDBRANCH  14  16
ENDBRANCH  13  14
ENDBRANCH   5  13
BRANCH   4  26
HETATM   26  S           1     173.709 185.017 268.338  0.00  0.00    -0.105 SA
BRANCH  26  27
HETATM   27  C           1     174.800 186.291 267.643  0.00  0.00     0.122 C 
BRANCH  27  28
HETATM   28  C           1     174.060 187.588 267.553  0.00  0.00    -0.049 A 
HETATM   29  C           1     174.690 188.778 267.916  0.00  0.00     0.008 A 
HETATM   30  C           1     174.000 189.987 267.833  0.00  0.00     0.001 A 
HETATM   31  C           1     172.678 190.007 267.388  0.00  0.00     0.000 A 
HETATM   32  C           1     172.047 188.817 267.024  0.00  0.00     0.001 A 
HETATM   33  C           1     172.738 187.608 267.108  0.00  0.00     0.008 A 
ENDBRANCH  27  28
ENDBRANCH  26  27
ENDBRANCH   4  26
TORSDOF 9
ENDMDL
MODEL 2
REMARK VINA RESULT:      -7.3      7.750     11.848
REMARK  9 active torsions:
REMARK  status: ('A' for Active; 'I' for Inactive)
REMARK    1  A    between atoms: C_4  and  S_25 
REMARK    2  A    between atoms: C_5  and  C_7 
REMARK    3  A    between atoms: C_7  and  N_8 
REMARK    4  A    between atoms: N_8  and  C_9 
REMARK    5  A    between atoms: C_9  and  C_10 
REMARK    6  A    between atoms: C_10  and  C_11 
REMARK    7  A    between atoms: N_14  and  C_17 
REMARK    8  A    between atoms: S_25  and  C_32 
REMARK    9  A    between atoms: C_26  and  C_32 
ROOT
HETATM    1  C           1     174.936 186.412 276.977  0.00  0.00    -0.008 A 
HETATM    2  C           1     173.619 185.989 276.888  0.00  0.00     0.130 A 
HETATM    3  N           1     172.731 186.075 277.903  0.00  0.00    -0.253 NA
HETATM    4  C           1     173.184 186.610 279.059  0.00  0.00     0.101 A 
HETATM    5  C           1     174.480 187.061 279.244  0.00  0.00     0.006 A 
HETATM    6  C           1     175.371 186.958 278.180  0.00  0.00     0.025 A 
HETATM    7  C           1     175.766 186.298 275.935  0.00  0.00    -0.025 A 
HETATM    8  C           1     175.252 186.110 274.652  0.00  0.00     0.012 A 
HETATM    9  C           1     176.117 185.991 273.564  0.00  0.00     0.001 A 
HETATM   10  C           1     177.496 186.059 273.761  0.00  0.00     0.000 A 
HETATM   11  C           1     178.010 186.246 275.044  0.00  0.00     0.001 A 
HETATM   12  C           1     177.145 186.365 276.131  0.00  0.00     0.012 A 
ENDROOT
BRANCH   5  13
HETATM   13  C           1     174.912 187.642 280.554  0.00  0.00     0.308 C 
BRANCH  13  14
HETATM   14  N           1     175.861 186.762 281.181  0.00  0.00     0.087 N 
HETATM   15  H           1     175.921 185.894 280.649  0.00  0.00     0.316 HD
BRANCH  14  16
HETATM   16  C           1     175.384 186.479 282.508  0.00  0.00     0.270 C 
BRANCH  16  17
HETATM   17  C           1     174.783 185.081 282.545  0.00  0.00     0.034 C 
BRANCH  17  18
HETATM   18  C           1     173.960 184.913 283.815  0.00  0.00    -0.010 C 
HETATM   19  C           1     174.902 184.704 284.997  0.00  0.00     0.035 C 
HETATM   20  C           1     174.140 184.724 286.321  0.00  0.00     0.272 C 
HETATM   21  N           1     173.366 185.956 286.476  0.00  0.00     0.088 N 
HETATM   22  C           1     172.405 186.125 285.385  0.00  0.00     0.272 C 
HETATM   23  C           1     173.103 186.157 284.027  0.00  0.00     0.035 C 
BRANCH  21  24
HETATM   24  C           1     172.619 185.806 287.696  0.00  0.00     0.268 C 
HETATM   25  C           1     171.343 185.024 287.417  0.00  0.00     0.037 C 
ENDBRANCH  21  24
ENDBRANCH  17  18
ENDBRANCH  16  17
ENDBRANCH  14  16
ENDBRANCH  13  14
ENDBRANCH   5  13
BRANCH   4  26
HETATM   26  S           1     172.024 186.747 280.448  0.00  0.00    -0.105 SA
BRANCH  26  27
HETATM   27  C           1     171.233 188.249 279.805  0.00  0.00     0.122 C 
BRANCH  27  28
HETATM   28  C           1     171.405 189.364 280.789  0.00  0.00    -0.049 A 
HETATM   29  C           1     170.911 190.635 280.496  0.00  0.00     0.008 A 
HETATM   30  C           1     171.071 191.674 281.413  0.00  0.00     0.001 A 
HETATM   31  C           1     171.726 191.442 282.622  0.00  0.00     0.000 A 
HETATM   32  C           1     172.220 190.171 282.916  0.00  0.00     0.001 A 
HETATM   33  C           1     172.060 189.132 281.998  0.00  0.00     0.008 A 
ENDBRANCH  27  28
ENDBRANCH  26  27
ENDBRANCH   4  26
TORSDOF 9
ENDMDL
MODEL 3
REMARK VINA RESULT:      -7.2      8.411     12.180
REMARK  9 active torsions:
REMARK  status: ('A' for Active; 'I' for Inactive)
REMARK    1  A    between atoms: C_4  and  S_25 
REMARK    2  A    between atoms: C_5  and  C_7 
REMARK    3  A    between atoms: C_7  and  N_8 
REMARK    4  A    between atoms: N_8  and  C_9 
REMARK    5  A    between atoms: C_9  and  C_10 
REMARK    6  A    between atoms: C_10  and  C_11 
REMARK    7  A    between atoms: N_14  and  C_17 
REMARK    8  A    between atoms: S_25  and  C_32 
REMARK    9  A    between atoms: C_26  and  C_32 
ROOT
HETATM    1  C           1     171.400 189.518 280.676  0.00  0.00    -0.008 A 
HETATM    2  C           1     170.722 189.086 279.547  0.00  0.00     0.130 A 
HETATM    3  N           1     171.010 187.943 278.888  0.00  0.00    -0.253 NA
HETATM    4  C           1     172.024 187.199 279.383  0.00  0.00     0.101 A 
HETATM    5  C           1     172.760 187.547 280.504  0.00  0.00     0.006 A 
HETATM    6  C           1     172.439 188.731 281.160  0.00  0.00     0.025 A 
HETATM    7  C           1     171.066 190.662 281.282  0.00  0.00    -0.025 A 
HETATM    8  C           1     169.822 191.244 281.035  0.00  0.00     0.012 A 
HETATM    9  C           1     169.472 192.437 281.668  0.00  0.00     0.001 A 
HETATM   10  C           1     170.367 193.048 282.546  0.00  0.00     0.000 A 
HETATM   11  C           1     171.611 192.467 282.792  0.00  0.00     0.001 A 
HETATM   12  C           1     171.960 191.274 282.160  0.00  0.00     0.012 A 
ENDROOT
BRANCH   5  13
HETATM   13  C           1     173.871 186.673 280.995  0.00  0.00     0.308 C 
BRANCH  13  14
HETATM   14  N           1     174.736 187.434 281.856  0.00  0.00     0.087 N 
HETATM   15  H           1     175.402 187.959 281.289  0.00  0.00     0.316 HD
BRANCH  14  16
HETATM   16  C           1     175.447 186.506 282.693  0.00  0.00     0.270 C 
BRANCH  16  17
HETATM   17  C           1     174.731 185.163 282.687  0.00  0.00     0.034 C 
BRANCH  17  18
HETATM   18  C           1     174.266 184.826 284.098  0.00  0.00    -0.010 C 
HETATM   19  C           1     175.219 185.463 285.104  0.00  0.00     0.035 C 
HETATM   20  C           1     174.693 185.320 286.530  0.00  0.00     0.272 C 
HETATM   21  N           1     173.343 185.870 286.662  0.00  0.00     0.088 N 
HETATM   22  C           1     172.405 185.210 285.752  0.00  0.00     0.272 C 
HETATM   23  C           1     172.848 185.349 284.297  0.00  0.00     0.035 C 
BRANCH  21  24
HETATM   24  C           1     172.925 185.580 288.007  0.00  0.00     0.268 C 
HETATM   25  C           1     174.077 185.847 288.966  0.00  0.00     0.037 C 
ENDBRANCH  21  24
ENDBRANCH  17  18
ENDBRANCH  16  17
ENDBRANCH  14  16
ENDBRANCH  13  14
ENDBRANCH   5  13
BRANCH   4  26
HETATM   26  S           1     172.445 185.653 278.529  0.00  0.00    -0.105 SA
BRANCH  26  27
HETATM   27  C           1     172.874 186.482 276.972  0.00  0.00     0.122 C 
BRANCH  27  28
HETATM   28  C           1     174.288 186.155 276.605  0.00  0.00    -0.049 A 
HETATM   29  C           1     175.344 186.786 277.262  0.00  0.00     0.008 A 
HETATM   30  C           1     176.661 186.481 276.920  0.00  0.00     0.001 A 
HETATM   31  C           1     176.923 185.545 275.919  0.00  0.00     0.000 A 
HETATM   32  C           1     175.867 184.914 275.261  0.00  0.00     0.001 A 
HETATM   33  C           1     174.549 185.219 275.604  0.00  0.00     0.008 A 
ENDBRANCH  27  28
ENDBRANCH  26  27
ENDBRANCH   4  26
TORSDOF 9
ENDMDL
MODEL 4
REMARK VINA RESULT:      -7.0      8.072     12.300
REMARK  9 active torsions:
REMARK  status: ('A' for Active; 'I' for Inactive)
REMARK    1  A    between atoms: C_4  and  S_25 
REMARK    2  A    between atoms: C_5  and  C_7 
REMARK    3  A    between atoms: C_7  and  N_8 
REMARK    4  A    between atoms: N_8  and  C_9 
REMARK    5  A    between atoms: C_9  and  C_10 
REMARK    6  A    between atoms: C_10  and  C_11 
REMARK    7  A    between atoms: N_14  and  C_17 
REMARK    8  A    between atoms: S_25  and  C_32 
REMARK    9  A    between atoms: C_26  and  C_32 
ROOT
HETATM    1  C           1     172.497 189.512 282.060  0.00  0.00    -0.008 A 
HETATM    2  C           1     173.252 189.387 283.216  0.00  0.00     0.130 A 
HETATM    3  N           1     174.095 188.359 283.455  0.00  0.00    -0.253 NA
HETATM    4  C           1     174.186 187.415 282.492  0.00  0.00     0.101 A 
HETATM    5  C           1     173.473 187.453 281.305  0.00  0.00     0.006 A 
HETATM    6  C           1     172.612 188.524 281.088  0.00  0.00     0.025 A 
HETATM    7  C           1     171.679 190.556 281.885  0.00  0.00    -0.025 A 
HETATM    8  C           1     171.839 191.705 282.659  0.00  0.00     0.012 A 
HETATM    9  C           1     170.986 192.793 282.477  0.00  0.00     0.001 A 
HETATM   10  C           1     169.972 192.732 281.521  0.00  0.00     0.000 A 
HETATM   11  C           1     169.812 191.582 280.747  0.00  0.00     0.001 A 
HETATM   12  C           1     170.665 190.494 280.929  0.00  0.00     0.012 A 
ENDROOT
BRANCH   5  13
HETATM   13  C           1     173.624 186.370 280.283  0.00  0.00     0.308 C 
BRANCH  13  14
HETATM   14  N           1     172.325 185.963 279.819  0.00  0.00     0.087 N 
HETATM   15  H           1     171.919 185.304 280.484  0.00  0.00     0.316 HD
BRANCH  14  16
HETATM   16  C           1     172.498 185.315 278.547  0.00  0.00     0.270 C 
BRANCH  16  17
HETATM   17  C           1     172.744 186.363 277.471  0.00  0.00     0.034 C 
BRANCH  17  18
HETATM   18  C           1     174.112 186.135 276.841  0.00  0.00    -0.010 C 
HETATM   19  C           1     173.947 185.312 275.568  0.00  0.00     0.035 C 
HETATM   20  C           1     175.261 185.219 274.796  0.00  0.00     0.272 C 
HETATM   21  N           1     175.804 186.546 274.498  0.00  0.00     0.088 N 
HETATM   22  C           1     176.037 187.314 275.722  0.00  0.00     0.272 C 
HETATM   23  C           1     174.751 187.484 276.528  0.00  0.00     0.035 C 
BRANCH  21  24
HETATM   24  C           1     177.079 186.323 273.872  0.00  0.00     0.268 C 
HETATM   25  C           1     178.166 186.275 274.937  0.00  0.00     0.037 C 
ENDBRANCH  21  24
ENDBRANCH  17  18
ENDBRANCH  16  17
ENDBRANCH  14  16
ENDBRANCH  13  14
ENDBRANCH   5  13
BRANCH   4  26
HETATM   26  S           1     175.309 186.016 282.770  0.00  0.00    -0.105 SA
BRANCH  26  27
HETATM   27  C           1     173.996 184.920 283.378  0.00  0.00     0.122 C 
BRANCH  27  28
HETATM   28  C           1     173.857 185.080 284.859  0.00  0.00    -0.049 A 
HETATM   29  C           1     174.992 185.236 285.654  0.00  0.00     0.008 A 
HETATM   30  C           1     174.863 185.385 287.035  0.00  0.00     0.001 A 
HETATM   31  C           1     173.598 185.377 287.622  0.00  0.00     0.000 A 
HETATM   32  C           1     172.461 185.222 286.827  0.00  0.00     0.001 A 
HETATM   33  C           1     172.592 185.072 285.446  0.00  0.00     0.008 A 
ENDBRANCH  27  28
ENDBRANCH  26  27
ENDBRANCH   4  26
TORSDOF 9
ENDMDL
MODEL 5
REMARK VINA RESULT:      -7.0      1.438      1.766
REMARK  9 active torsions:
REMARK  status: ('A' for Active; 'I' for Inactive)
REMARK    1  A    between atoms: C_4  and  S_25 
REMARK    2  A    between atoms: C_5  and  C_7 
REMARK    3  A    between atoms: C_7  and  N_8 
REMARK    4  A    between atoms: N_8  and  C_9 
REMARK    5  A    between atoms: C_9  and  C_10 
REMARK    6  A    between atoms: C_10  and  C_11 
REMARK    7  A    between atoms: N_14  and  C_17 
REMARK    8  A    between atoms: S_25  and  C_32 
REMARK    9  A    between atoms: C_26  and  C_32 
ROOT
HETATM    1  C           1     175.429 185.226 272.442  0.00  0.00    -0.008 A 
HETATM    2  C           1     176.230 185.352 271.319  0.00  0.00     0.130 A 
HETATM    3  N           1     175.790 185.158 270.056  0.00  0.00    -0.253 NA
HETATM    4  C           1     174.488 184.823 269.914  0.00  0.00     0.101 A 
HETATM    5  C           1     173.610 184.674 270.975  0.00  0.00     0.006 A 
HETATM    6  C           1     174.093 184.880 272.263  0.00  0.00     0.025 A 
HETATM    7  C           1     175.926 185.431 273.666  0.00  0.00    -0.025 A 
HETATM    8  C           1     177.125 186.126 273.824  0.00  0.00     0.012 A 
HETATM    9  C           1     177.644 186.340 275.101  0.00  0.00     0.001 A 
HETATM   10  C           1     176.965 185.859 276.220  0.00  0.00     0.000 A 
HETATM   11  C           1     175.766 185.163 276.062  0.00  0.00     0.001 A 
HETATM   12  C           1     175.247 184.949 274.785  0.00  0.00     0.012 A 
ENDROOT
BRANCH   5  13
HETATM   13  C           1     172.180 184.301 270.742  0.00  0.00     0.308 C 
BRANCH  13  14
HETATM   14  N           1     171.327 185.383 271.157  0.00  0.00     0.087 N 
HETATM   15  H           1     170.475 185.003 271.570  0.00  0.00     0.316 HD
BRANCH  14  16
HETATM   16  C           1     170.991 186.149 269.987  0.00  0.00     0.270 C 
BRANCH  16  17
HETATM   17  C           1     171.065 187.634 270.314  0.00  0.00     0.034 C 
BRANCH  17  18
HETATM   18  C           1     171.872 187.837 271.590  0.00  0.00    -0.010 C 
HETATM   19  C           1     173.244 188.398 271.231  0.00  0.00     0.035 C 
HETATM   20  C           1     174.021 188.800 272.483  0.00  0.00     0.272 C 
HETATM   21  N           1     173.263 189.746 273.304  0.00  0.00     0.088 N 
HETATM   22  C           1     171.976 189.184 273.716  0.00  0.00     0.272 C 
HETATM   23  C           1     171.124 188.796 272.510  0.00  0.00     0.035 C 
BRANCH  21  24
HETATM   24  C           1     174.047 189.960 274.490  0.00  0.00     0.268 C 
HETATM   25  C           1     174.553 188.622 275.012  0.00  0.00     0.037 C 
ENDBRANCH  21  24
ENDBRANCH  17  18
ENDBRANCH  16  17
ENDBRANCH  14  16
ENDBRANCH  13  14
ENDBRANCH   5  13
BRANCH   4  26
HETATM   26  S           1     173.854 184.554 268.235  0.00  0.00    -0.105 SA
BRANCH  26  27
HETATM   27  C           1     174.853 185.885 267.508  0.00  0.00     0.122 C 
BRANCH  27  28
HETATM   28  C           1     174.023 187.124 267.388  0.00  0.00    -0.049 A 
HETATM   29  C           1     174.527 188.347 267.831  0.00  0.00     0.008 A 
HETATM   30  C           1     173.754 189.502 267.720  0.00  0.00     0.001 A 
HETATM   31  C           1     172.475 189.435 267.166  0.00  0.00     0.000 A 
HETATM   32  C           1     171.971 188.212 266.723  0.00  0.00     0.001 A 
HETATM   33  C           1     172.745 187.057 266.835  0.00  0.00     0.008 A 
ENDBRANCH  27  28
ENDBRANCH  26  27
ENDBRANCH   4  26
TORSDOF 9
ENDMDL
MODEL 6
REMARK VINA RESULT:      -6.9      1.856      4.591
REMARK  9 active torsions:
REMARK  status: ('A' for Active; 'I' for Inactive)
REMARK    1  A    between atoms: C_4  and  S_25 
REMARK    2  A    between atoms: C_5  and  C_7 
REMARK    3  A    between atoms: C_7  and  N_8 
REMARK    4  A    between atoms: N_8  and  C_9 
REMARK    5  A    between atoms: C_9  and  C_10 
REMARK    6  A    between atoms: C_10  and  C_11 
REMARK    7  A    between atoms: N_14  and  C_17 
REMARK    8  A    between atoms: S_25  and  C_32 
REMARK    9  A    between atoms: C_26  and  C_32 
ROOT
HETATM    1  C           1     175.201 186.723 273.008  0.00  0.00    -0.008 A 
HETATM    2  C           1     175.882 187.347 271.975  0.00  0.00     0.130 A 
HETATM    3  N           1     175.278 187.881 270.890  0.00  0.00    -0.253 NA
HETATM    4  C           1     173.930 187.785 270.840  0.00  0.00     0.101 A 
HETATM    5  C           1     173.164 187.181 271.823  0.00  0.00     0.006 A 
HETATM    6  C           1     173.815 186.641 272.927  0.00  0.00     0.025 A 
HETATM    7  C           1     175.859 186.214 274.055  0.00  0.00    -0.025 A 
HETATM    8  C           1     177.169 186.617 274.318  0.00  0.00     0.012 A 
HETATM    9  C           1     177.855 186.086 275.410  0.00  0.00     0.001 A 
HETATM   10  C           1     177.233 185.152 276.238  0.00  0.00     0.000 A 
HETATM   11  C           1     175.923 184.749 275.974  0.00  0.00     0.001 A 
HETATM   12  C           1     175.237 185.280 274.882  0.00  0.00     0.012 A 
ENDROOT
BRANCH   5  13
HETATM   13  C           1     171.674 187.111 271.700  0.00  0.00     0.308 C 
BRANCH  13  14
HETATM   14  N           1     171.233 185.766 271.952  0.00  0.00     0.087 N 
HETATM   15  H           1     171.797 185.358 272.698  0.00  0.00     0.316 HD
BRANCH  14  16
HETATM   16  C           1     171.420 185.010 270.744  0.00  0.00     0.270 C 
BRANCH  16  17
HETATM   17  C           1     171.889 183.604 271.090  0.00  0.00     0.034 C 
BRANCH  17  18
HETATM   18  C           1     173.247 183.347 270.450  0.00  0.00    -0.010 C 
HETATM   19  C           1     173.524 184.430 269.413  0.00  0.00     0.035 C 
HETATM   20  C           1     174.952 184.332 268.880  0.00  0.00     0.272 C 
HETATM   21  N           1     175.934 184.377 269.964  0.00  0.00     0.088 N 
HETATM   22  C           1     175.721 183.293 270.924  0.00  0.00     0.272 C 
HETATM   23  C           1     174.321 183.353 271.532  0.00  0.00     0.035 C 
BRANCH  21  24
HETATM   24  C           1     177.217 184.170 269.348  0.00  0.00     0.268 C 
HETATM   25  C           1     177.196 184.727 267.931  0.00  0.00     0.037 C 
ENDBRANCH  21  24
ENDBRANCH  17  18
ENDBRANCH  16  17
ENDBRANCH  14  16
ENDBRANCH  13  14
ENDBRANCH   5  13
BRANCH   4  26
HETATM   26  S           1     173.077 188.490 269.402  0.00  0.00    -0.105 SA
BRANCH  26  27
HETATM   27  C           1     174.365 189.730 269.086  0.00  0.00     0.122 C 
BRANCH  27  28
HETATM   28  C           1     174.144 190.917 269.969  0.00  0.00    -0.049 A 
HETATM   29  C           1     172.850 191.384 270.199  0.00  0.00     0.008 A 
HETATM   30  C           1     172.643 192.491 271.022  0.00  0.00     0.001 A 
HETATM   31  C           1     173.731 193.132 271.615  0.00  0.00     0.000 A 
HETATM   32  C           1     175.025 192.665 271.386  0.00  0.00     0.001 A 
HETATM   33  C           1     175.231 191.558 270.562  0.00  0.00     0.008 A 
ENDBRANCH  27  28
ENDBRANCH  26  27
ENDBRANCH   4  26
TORSDOF 9
ENDMDL
MODEL 7
REMARK VINA RESULT:      -6.9      5.437      9.345
REMARK  9 active torsions:
REMARK  status: ('A' for Active; 'I' for Inactive)
REMARK    1  A    between atoms: C_4  and  S_25 
REMARK    2  A    between atoms: C_5  and  C_7 
REMARK    3  A    between atoms: C_7  and  N_8 
REMARK    4  A    between atoms: N_8  and  C_9 
REMARK    5  A    between atoms: C_9  and  C_10 
REMARK    6  A    between atoms: C_10  and  C_11 
REMARK    7  A    between atoms: N_14  and  C_17 
REMARK    8  A    between atoms: S_25  and  C_32 
REMARK    9  A    between atoms: C_26  and  C_32 
ROOT
HETATM    1  C           1     174.752 186.199 276.582  0.00  0.00    -0.008 A 
HETATM    2  C           1     175.402 186.918 277.572  0.00  0.00     0.130 A 
HETATM    3  N           1     174.906 187.107 278.814  0.00  0.00    -0.253 NA
HETATM    4  C           1     173.703 186.548 279.076  0.00  0.00     0.101 A 
HETATM    5  C           1     172.978 185.812 278.153  0.00  0.00     0.006 A 
HETATM    6  C           1     173.516 185.636 276.882  0.00  0.00     0.025 A 
HETATM    7  C           1     175.299 186.050 275.370  0.00  0.00    -0.025 A 
HETATM    8  C           1     176.662 186.279 275.188  0.00  0.00     0.012 A 
HETATM    9  C           1     177.232 186.123 273.924  0.00  0.00     0.001 A 
HETATM   10  C           1     176.438 185.739 272.844  0.00  0.00     0.000 A 
HETATM   11  C           1     175.075 185.510 273.027  0.00  0.00     0.001 A 
HETATM   12  C           1     174.504 185.666 274.290  0.00  0.00     0.012 A 
ENDROOT
BRANCH   5  13
HETATM   13  C           1     171.651 185.222 278.513  0.00  0.00     0.308 C 
BRANCH  13  14
HETATM   14  N           1     170.669 185.616 277.538  0.00  0.00     0.087 N 
HETATM   15  H           1     171.089 185.600 276.609  0.00  0.00     0.316 HD
BRANCH  14  16
HETATM   16  C           1     170.254 186.956 277.853  0.00  0.00     0.270 C 
BRANCH  16  17
HETATM   17  C           1     169.842 187.674 276.575  0.00  0.00     0.034 C 
BRANCH  17  18
HETATM   18  C           1     170.994 187.645 275.579  0.00  0.00    -0.010 C 
HETATM   19  C           1     170.455 187.281 274.199  0.00  0.00     0.035 C 
HETATM   20  C           1     171.534 187.426 273.128  0.00  0.00     0.272 C 
HETATM   21  N           1     172.114 188.770 273.129  0.00  0.00     0.088 N 
HETATM   22  C           1     172.702 189.098 274.429  0.00  0.00     0.272 C 
HETATM   23  C           1     171.666 189.013 275.548  0.00  0.00     0.035 C 
BRANCH  21  24
HETATM   24  C           1     173.177 188.746 272.162  0.00  0.00     0.268 C 
HETATM   25  C           1     174.493 189.092 272.845  0.00  0.00     0.037 C 
ENDBRANCH  21  24
ENDBRANCH  17  18
ENDBRANCH  16  17
ENDBRANCH  14  16
ENDBRANCH  13  14
ENDBRANCH   5  13
BRANCH   4  26
HETATM   26  S           1     172.999 186.774 280.733  0.00  0.00    -0.105 SA
BRANCH  26  27
HETATM   27  C           1     173.988 185.444 281.473  0.00  0.00     0.122 C 
BRANCH  27  28
HETATM   28  C           1     173.804 185.453 282.958  0.00  0.00    -0.049 A 
HETATM   29  C           1     174.810 184.960 283.789  0.00  0.00     0.008 A 
HETATM   30  C           1     174.639 184.968 285.173  0.00  0.00     0.001 A 
HETATM   31  C           1     173.461 185.467 285.727  0.00  0.00     0.000 A 
HETATM   32  C           1     172.454 185.961 284.897  0.00  0.00     0.001 A 
HETATM   33  C           1     172.626 185.953 283.513  0.00  0.00     0.008 A 
ENDBRANCH  27  28
ENDBRANCH  26  27
ENDBRANCH   4  26
TORSDOF 9
ENDMDL
MODEL 8
REMARK VINA RESULT:      -6.6      2.365      3.801
REMARK  9 active torsions:
REMARK  status: ('A' for Active; 'I' for Inactive)
REMARK    1  A    between atoms: C_4  and  S_25 
REMARK    2  A    between atoms: C_5  and  C_7 
REMARK    3  A    between atoms: C_7  and  N_8 
REMARK    4  A    between atoms: N_8  and  C_9 
REMARK    5  A    between atoms: C_9  and  C_10 
REMARK    6  A    between atoms: C_10  and  C_11 
REMARK    7  A    between atoms: N_14  and  C_17 
REMARK    8  A    between atoms: S_25  and  C_32 
REMARK    9  A    between atoms: C_26  and  C_32 
ROOT
HETATM    1  C           1     175.344 185.479 272.648  0.00  0.00    -0.008 A 
HETATM    2  C           1     176.044 185.530 271.453  0.00  0.00     0.130 A 
HETATM    3  N           1     175.462 185.446 270.237  0.00  0.00    -0.253 NA
HETATM    4  C           1     174.118 185.307 270.218  0.00  0.00     0.101 A 
HETATM    5  C           1     173.333 185.246 271.358  0.00  0.00     0.006 A 
HETATM    6  C           1     173.962 185.334 272.595  0.00  0.00     0.025 A 
HETATM    7  C           1     175.981 185.566 273.820  0.00  0.00    -0.025 A 
HETATM    8  C           1     177.278 186.077 273.873  0.00  0.00     0.012 A 
HETATM    9  C           1     177.943 186.168 275.096  0.00  0.00     0.001 A 
HETATM   10  C           1     177.311 185.747 276.266  0.00  0.00     0.000 A 
HETATM   11  C           1     176.014 185.236 276.213  0.00  0.00     0.001 A 
HETATM   12  C           1     175.349 185.145 274.990  0.00  0.00     0.012 A 
ENDROOT
BRANCH   5  13
HETATM   13  C           1     171.848 185.089 271.260  0.00  0.00     0.308 C 
BRANCH  13  14
HETATM   14  N           1     171.224 186.384 271.307  0.00  0.00     0.087 N 
HETATM   15  H           1     171.934 187.107 271.187  0.00  0.00     0.316 HD
BRANCH  14  16
HETATM   16  C           1     170.609 186.527 272.599  0.00  0.00     0.270 C 
BRANCH  16  17
HETATM   17  C           1     170.852 187.935 273.125  0.00  0.00     0.034 C 
BRANCH  17  18
HETATM   18  C           1     170.949 187.902 274.645  0.00  0.00    -0.010 C 
HETATM   19  C           1     169.796 187.071 275.201  0.00  0.00     0.035 C 
HETATM   20  C           1     169.954 186.844 276.703  0.00  0.00     0.272 C 
HETATM   21  N           1     171.245 186.233 277.021  0.00  0.00     0.088 N 
HETATM   22  C           1     172.358 187.063 276.557  0.00  0.00     0.272 C 
HETATM   23  C           1     172.289 187.298 275.050  0.00  0.00     0.035 C 
BRANCH  21  24
HETATM   24  C           1     171.314 186.172 278.456  0.00  0.00     0.268 C 
HETATM   25  C           1     172.660 185.598 278.876  0.00  0.00     0.037 C 
ENDBRANCH  21  24
ENDBRANCH  17  18
ENDBRANCH  16  17
ENDBRANCH  14  16
ENDBRANCH  13  14
ENDBRANCH   5  13
BRANCH   4  26
HETATM   26  S           1     173.294 185.193 268.605  0.00  0.00    -0.105 SA
BRANCH  26  27
HETATM   27  C           1     174.486 186.282 267.776  0.00  0.00     0.122 C 
BRANCH  27  28
HETATM   28  C           1     173.911 187.659 267.664  0.00  0.00    -0.049 A 
HETATM   29  C           1     174.605 188.750 268.186  0.00  0.00     0.008 A 
HETATM   30  C           1     174.069 190.033 268.081  0.00  0.00     0.001 A 
HETATM   31  C           1     172.837 190.226 267.456  0.00  0.00     0.000 A 
HETATM   32  C           1     172.142 189.135 266.934  0.00  0.00     0.001 A 
HETATM   33  C           1     172.679 187.851 267.039  0.00  0.00     0.008 A 
ENDBRANCH  27  28
ENDBRANCH  26  27
ENDBRANCH   4  26
TORSDOF 9
ENDMDL
MODEL 9
REMARK VINA RESULT:      -6.6      2.721      5.822
REMARK  9 active torsions:
REMARK  status: ('A' for Active; 'I' for Inactive)
REMARK    1  A    between atoms: C_4  and  S_25 
REMARK    2  A    between atoms: C_5  and  C_7 
REMARK    3  A    between atoms: C_7  and  N_8 
REMARK    4  A    between atoms: N_8  and  C_9 
REMARK    5  A    between atoms: C_9  and  C_10 
REMARK    6  A    between atoms: C_10  and  C_11 
REMARK    7  A    between atoms: N_14  and  C_17 
REMARK    8  A    between atoms: S_25  and  C_32 
REMARK    9  A    between atoms: C_26  and  C_32 
ROOT
HETATM    1  C           1     175.359 185.302 272.901  0.00  0.00    -0.008 A 
HETATM    2  C           1     174.002 185.030 272.985  0.00  0.00     0.130 A 
HETATM    3  N           1     173.214 184.797 271.913  0.00  0.00    -0.253 NA
HETATM    4  C           1     173.813 184.839 270.702  0.00  0.00     0.101 A 
HETATM    5  C           1     175.160 185.102 270.517  0.00  0.00     0.006 A 
HETATM    6  C           1     175.945 185.338 271.641  0.00  0.00     0.025 A 
HETATM    7  C           1     176.083 185.525 274.002  0.00  0.00    -0.025 A 
HETATM    8  C           1     175.599 185.127 275.249  0.00  0.00     0.012 A 
HETATM    9  C           1     176.355 185.359 276.397  0.00  0.00     0.001 A 
HETATM   10  C           1     177.595 185.989 276.300  0.00  0.00     0.000 A 
HETATM   11  C           1     178.080 186.386 275.054  0.00  0.00     0.001 A 
HETATM   12  C           1     177.324 186.155 273.905  0.00  0.00     0.012 A 
ENDROOT
BRANCH   5  13
HETATM   13  C           1     175.755 185.132 269.144  0.00  0.00     0.308 C 
BRANCH  13  14
HETATM   14  N           1     176.463 183.904 268.899  0.00  0.00     0.087 N 
HETATM   15  H           1     177.467 184.075 268.954  0.00  0.00     0.316 HD
BRANCH  14  16
HETATM   16  C           1     176.123 183.460 267.575  0.00  0.00     0.270 C 
BRANCH  16  17
HETATM   17  C           1     176.709 184.422 266.550  0.00  0.00     0.034 C 
BRANCH  17  18
HETATM   18  C           1     175.630 184.821 265.551  0.00  0.00    -0.010 C 
HETATM   19  C           1     176.143 184.573 264.136  0.00  0.00     0.035 C 
HETATM   20  C           1     175.035 184.773 263.104  0.00  0.00     0.272 C 
HETATM   21  N           1     173.871 183.935 263.397  0.00  0.00     0.088 N 
HETATM   22  C           1     173.327 184.222 264.725  0.00  0.00     0.272 C 
HETATM   23  C           1     174.372 184.002 265.817  0.00  0.00     0.035 C 
BRANCH  21  24
HETATM   24  C           1     172.870 184.292 262.428  0.00  0.00     0.268 C 
HETATM   25  C           1     173.250 185.610 261.767  0.00  0.00     0.037 C 
ENDBRANCH  21  24
ENDBRANCH  17  18
ENDBRANCH  16  17
ENDBRANCH  14  16
ENDBRANCH  13  14
ENDBRANCH   5  13
BRANCH   4  26
HETATM   26  S           1     172.792 184.530 269.233  0.00  0.00    -0.105 SA
BRANCH  26  27
HETATM   27  C           1     171.849 186.072 269.410  0.00  0.00     0.122 C 
BRANCH  27  28
HETATM   28  C           1     172.710 187.232 269.021  0.00  0.00    -0.049 A 
HETATM   29  C           1     172.938 188.267 269.928  0.00  0.00     0.008 A 
HETATM   30  C           1     173.740 189.348 269.566  0.00  0.00     0.001 A 
HETATM   31  C           1     174.315 189.396 268.296  0.00  0.00     0.000 A 
HETATM   32  C           1     174.089 188.361 267.388  0.00  0.00     0.001 A 
HETATM   33  C           1     173.285 187.279 267.751  0.00  0.00     0.008 A 
ENDBRANCH  27  28
ENDBRANCH  26  27
ENDBRANCH   4  26
TORSDOF 9
ENDMDL
