MODEL 1
REMARK VINA RESULT:      -7.5      0.000      0.000
REMARK  9 active torsions:
REMARK  status: ('A' for Active; 'I' for Inactive)
REMARK    1  A    between atoms: C_5  and  S_21 
REMARK    2  A    between atoms: C_6  and  C_8 
REMARK    3  A    between atoms: C_8  and  N_9 
REMARK    4  A    between atoms: N_9  and  C_10 
REMARK    5  A    between atoms: C_10  and  C_11 
REMARK    6  A    between atoms: C_11  and  C_12 
REMARK    7  A    between atoms: N_15  and  C_18 
REMARK    8  A    between atoms: S_21  and  C_28 
REMARK    9  A    between atoms: C_22  and  C_28 
ROOT
HETATM    1  C           1     171.941 189.234 281.261  0.00  0.00     0.027 A 
HETATM    2  C           1     171.220 189.099 280.085  0.00  0.00     0.108 A 
HETATM    3  N           1     171.300 188.021 279.275  0.00  0.00    -0.359 N 
ATOM      4  HN          1     170.755 187.955 278.416  1.00  0.00     0.166 HD
HETATM    5  C           1     172.138 187.035 279.661  0.00  0.00     0.078 A 
HETATM    6  C           1     172.899 187.078 280.818  0.00  0.00     0.004 A 
HETATM    7  C           1     172.796 188.201 281.631  0.00  0.00     0.032 A 
HETATM    8 Br           1     171.766 190.773 282.329  0.00  0.00    -0.050 Br
ENDROOT
BRANCH   6   9
HETATM    9  C           1     173.809 185.946 281.183  0.00  0.00     0.307 C 
BRANCH   9  10
HETATM   10  N           1     175.085 186.468 281.590  0.00  0.00     0.087 N 
HETATM   11  H           1     175.720 186.475 280.792  0.00  0.00     0.316 HD
BRANCH  10  12
HETATM   12  C           1     175.608 185.600 282.611  0.00  0.00     0.270 C 
BRANCH  12  13
HETATM   13  C           1     174.461 184.858 283.284  0.00  0.00     0.034 C 
BRANCH  13  14
HETATM   14  C           1     174.170 185.493 284.637  0.00  0.00    -0.010 C 
HETATM   15  C           1     172.662 185.504 284.870  0.00  0.00     0.035 C 
HETATM   16  C           1     172.325 185.951 286.291  0.00  0.00     0.272 C 
HETATM   17  N           1     173.005 185.122 287.288  0.00  0.00     0.088 N 
HETATM   18  C           1     174.458 185.166 287.119  0.00  0.00     0.272 C 
HETATM   19  C           1     174.873 184.691 285.728  0.00  0.00     0.035 C 
BRANCH  17  20
HETATM   20  C           1     172.696 185.705 288.566  0.00  0.00     0.268 C 
HETATM   21  C           1     173.976 185.864 289.375  0.00  0.00     0.037 C 
ENDBRANCH  17  20
ENDBRANCH  13  14
ENDBRANCH  12  13
ENDBRANCH  10  12
ENDBRANCH   9  10
ENDBRANCH   6   9
BRANCH   5  22
HETATM   22  S           1     172.277 185.567 278.601  0.00  0.00    -0.107 SA
BRANCH  22  23
HETATM   23  C           1     172.705 186.521 277.118  0.00  0.00     0.122 C 
BRANCH  23  24
HETATM   24  C           1     174.098 186.179 276.689  0.00  0.00    -0.049 A 
HETATM   25  C           1     175.189 186.733 277.357  0.00  0.00     0.008 A 
HETATM   26  C           1     176.487 186.413 276.956  0.00  0.00     0.001 A 
HETATM   27  C           1     176.693 185.540 275.889  0.00  0.00     0.000 A 
HETATM   28  C           1     175.600 184.987 275.220  0.00  0.00     0.001 A 
HETATM   29  C           1     174.303 185.306 275.620  0.00  0.00     0.008 A 
ENDBRANCH  23  24
ENDBRANCH  22  23
ENDBRANCH   5  22
TORSDOF 9
ENDMDL
MODEL 2
REMARK VINA RESULT:      -7.3      2.041      8.580
REMARK  9 active torsions:
REMARK  status: ('A' for Active; 'I' for Inactive)
REMARK    1  A    between atoms: C_5  and  S_21 
REMARK    2  A    between atoms: C_6  and  C_8 
REMARK    3  A    between atoms: C_8  and  N_9 
REMARK    4  A    between atoms: N_9  and  C_10 
REMARK    5  A    between atoms: C_10  and  C_11 
REMARK    6  A    between atoms: C_11  and  C_12 
REMARK    7  A    between atoms: N_15  and  C_18 
REMARK    8  A    between atoms: S_21  and  C_28 
REMARK    9  A    between atoms: C_22  and  C_28 
ROOT
HETATM    1  C           1     173.121 189.469 281.738  0.00  0.00     0.027 A 
HETATM    2  C           1     174.082 189.354 282.730  0.00  0.00     0.108 A 
HETATM    3  N           1     174.712 188.198 283.035  0.00  0.00    -0.359 N 
ATOM      4  HN          1     175.415 188.149 283.772  1.00  0.00     0.166 HD
HETATM    5  C           1     174.363 187.111 282.314  0.00  0.00     0.078 A 
HETATM    6  C           1     173.415 187.126 281.303  0.00  0.00     0.004 A 
HETATM    7  C           1     172.784 188.331 281.013  0.00  0.00     0.032 A 
HETATM    8 Br           1     172.296 191.121 281.381  0.00  0.00    -0.050 Br
ENDROOT
BRANCH   6   9
HETATM    9  C           1     173.079 185.880 280.545  0.00  0.00     0.307 C 
BRANCH   9  10
HETATM   10  N           1     171.975 186.139 279.660  0.00  0.00     0.087 N 
HETATM   11  H           1     171.099 185.930 280.139  0.00  0.00     0.316 HD
BRANCH  10  12
HETATM   12  C           1     172.116 185.276 278.519  0.00  0.00     0.270 C 
BRANCH  12  13
HETATM   13  C           1     172.308 186.118 277.265  0.00  0.00     0.034 C 
BRANCH  13  14
HETATM   14  C           1     173.573 185.674 276.544  0.00  0.00    -0.010 C 
HETATM   15  C           1     173.400 185.900 275.044  0.00  0.00     0.035 C 
HETATM   16  C           1     174.707 185.655 274.293  0.00  0.00     0.272 C 
HETATM   17  N           1     175.793 186.478 274.826  0.00  0.00     0.088 N 
HETATM   18  C           1     176.018 186.212 276.248  0.00  0.00     0.272 C 
HETATM   19  C           1     174.758 186.478 277.072  0.00  0.00     0.035 C 
BRANCH  17  20
HETATM   20  C           1     176.978 186.080 274.116  0.00  0.00     0.268 C 
HETATM   21  C           1     178.203 186.343 274.982  0.00  0.00     0.037 C 
ENDBRANCH  17  20
ENDBRANCH  13  14
ENDBRANCH  12  13
ENDBRANCH  10  12
ENDBRANCH   9  10
ENDBRANCH   6   9
BRANCH   5  22
HETATM   22  S           1     175.184 185.536 282.691  0.00  0.00    -0.107 SA
BRANCH  22  23
HETATM   23  C           1     175.540 185.987 284.413  0.00  0.00     0.122 C 
BRANCH  23  24
HETATM   24  C           1     174.387 185.590 285.281  0.00  0.00    -0.049 A 
HETATM   25  C           1     174.559 185.476 286.660  0.00  0.00     0.008 A 
HETATM   26  C           1     173.484 185.106 287.468  0.00  0.00     0.001 A 
HETATM   27  C           1     172.237 184.850 286.898  0.00  0.00     0.000 A 
HETATM   28  C           1     172.066 184.963 285.518  0.00  0.00     0.001 A 
HETATM   29  C           1     173.141 185.333 284.710  0.00  0.00     0.008 A 
ENDBRANCH  23  24
ENDBRANCH  22  23
ENDBRANCH   5  22
TORSDOF 9
ENDMDL
MODEL 3
REMARK VINA RESULT:      -7.2      8.321     12.990
REMARK  9 active torsions:
REMARK  status: ('A' for Active; 'I' for Inactive)
REMARK    1  A    between atoms: C_5  and  S_21 
REMARK    2  A    between atoms: C_6  and  C_8 
REMARK    3  A    between atoms: C_8  and  N_9 
REMARK    4  A    between atoms: N_9  and  C_10 
REMARK    5  A    between atoms: C_10  and  C_11 
REMARK    6  A    between atoms: C_11  and  C_12 
REMARK    7  A    between atoms: N_15  and  C_18 
REMARK    8  A    between atoms: S_21  and  C_28 
REMARK    9  A    between atoms: C_22  and  C_28 
ROOT
HETATM    1  C           1     176.877 186.253 275.456  0.00  0.00     0.027 A 
HETATM    2  C           1     176.788 187.636 275.465  0.00  0.00     0.108 A 
HETATM    3  N           1     175.999 188.343 274.627  0.00  0.00    -0.359 N 
ATOM      4  HN          1     175.957 189.361 274.662  1.00  0.00     0.166 HD
HETATM    5  C           1     175.266 187.633 273.742  0.00  0.00     0.078 A 
HETATM    6  C           1     175.287 186.250 273.657  0.00  0.00     0.004 A 
HETATM    7  C           1     176.111 185.550 274.532  0.00  0.00     0.032 A 
HETATM    8 Br           1     178.005 185.351 276.661  0.00  0.00    -0.050 Br
ENDROOT
BRANCH   6   9
HETATM    9  C           1     174.448 185.529 272.649  0.00  0.00     0.307 C 
BRANCH   9  10
HETATM   10  N           1     174.671 184.113 272.763  0.00  0.00     0.087 N 
HETATM   11  H           1     175.522 183.945 273.299  0.00  0.00     0.316 HD
BRANCH  10  12
HETATM   12  C           1     174.830 183.586 271.435  0.00  0.00     0.270 C 
BRANCH  12  13
HETATM   13  C           1     176.230 183.902 270.926  0.00  0.00     0.034 C 
BRANCH  13  14
HETATM   14  C           1     176.317 183.575 269.441  0.00  0.00    -0.010 C 
HETATM   15  C           1     174.941 183.758 268.806  0.00  0.00     0.035 C 
HETATM   16  C           1     175.012 183.632 267.286  0.00  0.00     0.272 C 
HETATM   17  N           1     175.983 184.567 266.716  0.00  0.00     0.088 N 
HETATM   18  C           1     177.322 184.348 267.263  0.00  0.00     0.272 C 
HETATM   19  C           1     177.337 184.500 268.784  0.00  0.00     0.035 C 
BRANCH  17  20
HETATM   20  C           1     176.034 184.278 265.308  0.00  0.00     0.268 C 
HETATM   21  C           1     177.176 183.310 265.029  0.00  0.00     0.037 C 
ENDBRANCH  17  20
ENDBRANCH  13  14
ENDBRANCH  12  13
ENDBRANCH  10  12
ENDBRANCH   9  10
ENDBRANCH   6   9
BRANCH   5  22
HETATM   22  S           1     174.191 188.543 272.597  0.00  0.00    -0.107 SA
BRANCH  22  23
HETATM   23  C           1     175.554 189.020 271.496  0.00  0.00     0.122 C 
BRANCH  23  24
HETATM   24  C           1     175.125 188.855 270.071  0.00  0.00    -0.049 A 
HETATM   25  C           1     174.956 189.976 269.259  0.00  0.00     0.008 A 
HETATM   26  C           1     174.557 189.820 267.932  0.00  0.00     0.001 A 
HETATM   27  C           1     174.326 188.545 267.416  0.00  0.00     0.000 A 
HETATM   28  C           1     174.495 187.424 268.229  0.00  0.00     0.001 A 
HETATM   29  C           1     174.894 187.579 269.557  0.00  0.00     0.008 A 
ENDBRANCH  23  24
ENDBRANCH  22  23
ENDBRANCH   5  22
TORSDOF 9
ENDMDL
MODEL 4
REMARK VINA RESULT:      -7.0      3.750      6.386
REMARK  9 active torsions:
REMARK  status: ('A' for Active; 'I' for Inactive)
REMARK    1  A    between atoms: C_5  and  S_21 
REMARK    2  A    between atoms: C_6  and  C_8 
REMARK    3  A    between atoms: C_8  and  N_9 
REMARK    4  A    between atoms: N_9  and  C_10 
REMARK    5  A    between atoms: C_10  and  C_11 
REMARK    6  A    between atoms: C_11  and  C_12 
REMARK    7  A    between atoms: N_15  and  C_18 
REMARK    8  A    between atoms: S_21  and  C_28 
REMARK    9  A    between atoms: C_22  and  C_28 
ROOT
HETATM    1  C           1     177.675 186.051 276.172  0.00  0.00     0.027 A 
HETATM    2  C           1     178.111 186.437 274.914  0.00  0.00     0.108 A 
HETATM    3  N           1     177.322 187.042 273.999  0.00  0.00    -0.359 N 
ATOM      4  HN          1     177.676 187.313 273.083  1.00  0.00     0.166 HD
HETATM    5  C           1     176.041 187.269 274.361  0.00  0.00     0.078 A 
HETATM    6  C           1     175.513 186.920 275.594  0.00  0.00     0.004 A 
HETATM    7  C           1     176.350 186.298 276.514  0.00  0.00     0.032 A 
HETATM    8 Br           1     178.845 185.214 277.384  0.00  0.00    -0.050 Br
ENDROOT
BRANCH   6   9
HETATM    9  C           1     174.081 187.202 275.925  0.00  0.00     0.307 C 
BRANCH   9  10
HETATM   10  N           1     173.303 186.005 275.756  0.00  0.00     0.087 N 
HETATM   11  H           1     172.468 186.217 275.212  0.00  0.00     0.316 HD
BRANCH  10  12
HETATM   12  C           1     172.921 185.543 277.062  0.00  0.00     0.270 C 
BRANCH  12  13
HETATM   13  C           1     172.846 186.725 278.019  0.00  0.00     0.034 C 
BRANCH  13  14
HETATM   14  C           1     173.403 186.317 279.376  0.00  0.00    -0.010 C 
HETATM   15  C           1     174.593 187.209 279.717  0.00  0.00     0.035 C 
HETATM   16  C           1     175.068 186.973 281.150  0.00  0.00     0.272 C 
HETATM   17  N           1     173.981 187.157 282.112  0.00  0.00     0.088 N 
HETATM   18  C           1     172.865 186.251 281.837  0.00  0.00     0.272 C 
HETATM   19  C           1     172.308 186.459 280.429  0.00  0.00     0.035 C 
BRANCH  17  20
HETATM   20  C           1     174.523 186.806 283.396  0.00  0.00     0.268 C 
HETATM   21  C           1     175.768 185.949 283.205  0.00  0.00     0.037 C 
ENDBRANCH  17  20
ENDBRANCH  13  14
ENDBRANCH  12  13
ENDBRANCH  10  12
ENDBRANCH   9  10
ENDBRANCH   6   9
BRANCH   5  22
HETATM   22  S           1     174.945 188.079 273.161  0.00  0.00    -0.107 SA
BRANCH  22  23
HETATM   23  C           1     175.693 187.253 271.728  0.00  0.00     0.122 C 
BRANCH  23  24
HETATM   24  C           1     175.203 185.841 271.653  0.00  0.00    -0.049 A 
HETATM   25  C           1     173.883 185.543 271.990  0.00  0.00     0.008 A 
HETATM   26  C           1     173.427 184.226 271.920  0.00  0.00     0.001 A 
HETATM   27  C           1     174.290 183.208 271.514  0.00  0.00     0.000 A 
HETATM   28  C           1     175.611 183.508 271.178  0.00  0.00     0.001 A 
HETATM   29  C           1     176.067 184.824 271.248  0.00  0.00     0.008 A 
ENDBRANCH  23  24
ENDBRANCH  22  23
ENDBRANCH   5  22
TORSDOF 9
ENDMDL
MODEL 5
REMARK VINA RESULT:      -6.9      1.996      2.805
REMARK  9 active torsions:
REMARK  status: ('A' for Active; 'I' for Inactive)
REMARK    1  A    between atoms: C_5  and  S_21 
REMARK    2  A    between atoms: C_6  and  C_8 
REMARK    3  A    between atoms: C_8  and  N_9 
REMARK    4  A    between atoms: N_9  and  C_10 
REMARK    5  A    between atoms: C_10  and  C_11 
REMARK    6  A    between atoms: C_11  and  C_12 
REMARK    7  A    between atoms: N_15  and  C_18 
REMARK    8  A    between atoms: S_21  and  C_28 
REMARK    9  A    between atoms: C_22  and  C_28 
ROOT
HETATM    1  C           1     170.390 187.374 278.187  0.00  0.00     0.027 A 
HETATM    2  C           1     170.962 187.591 276.943  0.00  0.00     0.108 A 
HETATM    3  N           1     172.275 187.410 276.678  0.00  0.00    -0.359 N 
ATOM      4  HN          1     172.662 187.579 275.751  1.00  0.00     0.166 HD
HETATM    5  C           1     173.047 186.993 277.704  0.00  0.00     0.078 A 
HETATM    6  C           1     172.568 186.749 278.981  0.00  0.00     0.004 A 
HETATM    7  C           1     171.212 186.945 279.224  0.00  0.00     0.032 A 
HETATM    8 Br           1     168.551 187.652 278.464  0.00  0.00    -0.050 Br
ENDROOT
BRANCH   6   9
HETATM    9  C           1     173.484 186.288 280.072  0.00  0.00     0.307 C 
BRANCH   9  10
HETATM   10  N           1     172.717 185.647 281.105  0.00  0.00     0.087 N 
HETATM   11  H           1     171.732 185.889 280.997  0.00  0.00     0.316 HD
BRANCH  10  12
HETATM   12  C           1     173.194 186.133 282.371  0.00  0.00     0.270 C 
BRANCH  12  13
HETATM   13  C           1     174.278 185.202 282.898  0.00  0.00     0.034 C 
BRANCH  13  14
HETATM   14  C           1     174.033 184.922 284.374  0.00  0.00    -0.010 C 
HETATM   15  C           1     175.236 185.399 285.182  0.00  0.00     0.035 C 
HETATM   16  C           1     174.963 185.321 286.682  0.00  0.00     0.272 C 
HETATM   17  N           1     173.757 186.065 287.047  0.00  0.00     0.088 N 
HETATM   18  C           1     172.582 185.562 286.333  0.00  0.00     0.272 C 
HETATM   19  C           1     172.768 185.650 284.819  0.00  0.00     0.035 C 
BRANCH  17  20
HETATM   20  C           1     173.552 185.826 288.449  0.00  0.00     0.268 C 
HETATM   21  C           1     173.020 187.092 289.109  0.00  0.00     0.037 C 
ENDBRANCH  17  20
ENDBRANCH  13  14
ENDBRANCH  12  13
ENDBRANCH  10  12
ENDBRANCH   9  10
ENDBRANCH   6   9
BRANCH   5  22
HETATM   22  S           1     174.817 186.737 277.393  0.00  0.00    -0.107 SA
BRANCH  22  23
HETATM   23  C           1     174.554 185.262 276.367  0.00  0.00     0.122 C 
BRANCH  23  24
HETATM   24  C           1     175.190 185.466 275.028  0.00  0.00    -0.049 A 
HETATM   25  C           1     174.482 185.161 273.866  0.00  0.00     0.008 A 
HETATM   26  C           1     175.077 185.352 272.618  0.00  0.00     0.001 A 
HETATM   27  C           1     176.378 185.846 272.532  0.00  0.00     0.000 A 
HETATM   28  C           1     177.085 186.150 273.695  0.00  0.00     0.001 A 
HETATM   29  C           1     176.492 185.960 274.943  0.00  0.00     0.008 A 
ENDBRANCH  23  24
ENDBRANCH  22  23
ENDBRANCH   5  22
TORSDOF 9
ENDMDL
MODEL 6
REMARK VINA RESULT:      -6.8      3.600      6.229
REMARK  9 active torsions:
REMARK  status: ('A' for Active; 'I' for Inactive)
REMARK    1  A    between atoms: C_5  and  S_21 
REMARK    2  A    between atoms: C_6  and  C_8 
REMARK    3  A    between atoms: C_8  and  N_9 
REMARK    4  A    between atoms: N_9  and  C_10 
REMARK    5  A    between atoms: C_10  and  C_11 
REMARK    6  A    between atoms: C_11  and  C_12 
REMARK    7  A    between atoms: N_15  and  C_18 
REMARK    8  A    between atoms: S_21  and  C_28 
REMARK    9  A    between atoms: C_22  and  C_28 
ROOT
HETATM    1  C           1     173.514 190.238 273.557  0.00  0.00     0.027 A 
HETATM    2  C           1     173.908 189.761 272.317  0.00  0.00     0.108 A 
HETATM    3  N           1     173.960 188.449 271.999  0.00  0.00    -0.359 N 
ATOM      4  HN          1     174.254 188.133 271.075  1.00  0.00     0.166 HD
HETATM    5  C           1     173.602 187.577 272.966  0.00  0.00     0.078 A 
HETATM    6  C           1     173.195 187.958 274.235  0.00  0.00     0.004 A 
HETATM    7  C           1     173.152 189.315 274.533  0.00  0.00     0.032 A 
HETATM    8 Br           1     173.472 192.085 273.911  0.00  0.00    -0.050 Br
ENDROOT
BRANCH   6   9
HETATM    9  C           1     172.812 186.935 275.258  0.00  0.00     0.307 C 
BRANCH   9  10
HETATM   10  N           1     171.567 187.310 275.871  0.00  0.00     0.087 N 
HETATM   11  H           1     171.620 188.278 276.184  0.00  0.00     0.316 HD
BRANCH  10  12
HETATM   12  C           1     171.360 186.450 277.005  0.00  0.00     0.270 C 
BRANCH  12  13
HETATM   13  C           1     172.603 185.603 277.235  0.00  0.00     0.034 C 
BRANCH  13  14
HETATM   14  C           1     173.098 185.802 278.661  0.00  0.00    -0.010 C 
HETATM   15  C           1     174.258 186.793 278.655  0.00  0.00     0.035 C 
HETATM   16  C           1     174.665 187.179 280.076  0.00  0.00     0.272 C 
HETATM   17  N           1     173.529 187.704 280.834  0.00  0.00     0.088 N 
HETATM   18  C           1     172.440 186.730 280.910  0.00  0.00     0.272 C 
HETATM   19  C           1     171.951 186.328 279.519  0.00  0.00     0.035 C 
BRANCH  17  20
HETATM   20  C           1     174.011 187.926 282.170  0.00  0.00     0.268 C 
HETATM   21  C           1     173.267 187.015 283.137  0.00  0.00     0.037 C 
ENDBRANCH  17  20
ENDBRANCH  13  14
ENDBRANCH  12  13
ENDBRANCH  10  12
ENDBRANCH   9  10
ENDBRANCH   6   9
BRANCH   5  22
HETATM   22  S           1     173.658 185.804 272.582  0.00  0.00    -0.107 SA
BRANCH  22  23
HETATM   23  C           1     175.461 185.775 272.378  0.00  0.00     0.122 C 
BRANCH  23  24
HETATM   24  C           1     176.114 185.692 273.723  0.00  0.00    -0.049 A 
HETATM   25  C           1     177.326 186.344 273.951  0.00  0.00     0.008 A 
HETATM   26  C           1     177.933 186.266 275.204  0.00  0.00     0.001 A 
HETATM   27  C           1     177.330 185.537 276.229  0.00  0.00     0.000 A 
HETATM   28  C           1     176.118 184.885 276.000  0.00  0.00     0.001 A 
HETATM   29  C           1     175.510 184.962 274.747  0.00  0.00     0.008 A 
ENDBRANCH  23  24
ENDBRANCH  22  23
ENDBRANCH   5  22
TORSDOF 9
ENDMDL
MODEL 7
REMARK VINA RESULT:      -6.8      8.860     12.939
REMARK  9 active torsions:
REMARK  status: ('A' for Active; 'I' for Inactive)
REMARK    1  A    between atoms: C_5  and  S_21 
REMARK    2  A    between atoms: C_6  and  C_8 
REMARK    3  A    between atoms: C_8  and  N_9 
REMARK    4  A    between atoms: N_9  and  C_10 
REMARK    5  A    between atoms: C_10  and  C_11 
REMARK    6  A    between atoms: C_11  and  C_12 
REMARK    7  A    between atoms: N_15  and  C_18 
REMARK    8  A    between atoms: S_21  and  C_28 
REMARK    9  A    between atoms: C_22  and  C_28 
ROOT
HETATM    1  C           1     175.820 183.577 268.252  0.00  0.00     0.027 A 
HETATM    2  C           1     176.212 183.314 269.555  0.00  0.00     0.108 A 
HETATM    3  N           1     176.031 184.173 270.582  0.00  0.00    -0.359 N 
ATOM      4  HN          1     176.331 183.947 271.529  1.00  0.00     0.166 HD
HETATM    5  C           1     175.431 185.348 270.290  0.00  0.00     0.078 A 
HETATM    6  C           1     175.005 185.701 269.019  0.00  0.00     0.004 A 
HETATM    7  C           1     175.205 184.796 267.983  0.00  0.00     0.032 A 
HETATM    8 Br           1     176.112 182.320 266.884  0.00  0.00    -0.050 Br
ENDROOT
BRANCH   6   9
HETATM    9  C           1     174.347 187.022 268.769  0.00  0.00     0.307 C 
BRANCH   9  10
HETATM   10  N           1     174.885 187.607 267.571  0.00  0.00     0.087 N 
HETATM   11  H           1     175.884 187.412 267.516  0.00  0.00     0.316 HD
BRANCH  10  12
HETATM   12  C           1     174.676 189.028 267.645  0.00  0.00     0.270 C 
BRANCH  12  13
HETATM   13  C           1     173.619 189.333 268.697  0.00  0.00     0.034 C 
BRANCH  13  14
HETATM   14  C           1     173.889 190.701 269.307  0.00  0.00    -0.010 C 
HETATM   15  C           1     172.836 190.992 270.372  0.00  0.00     0.035 C 
HETATM   16  C           1     173.171 192.263 271.150  0.00  0.00     0.272 C 
HETATM   17  N           1     174.509 192.193 271.739  0.00  0.00     0.088 N 
HETATM   18  C           1     175.535 191.991 270.715  0.00  0.00     0.272 C 
HETATM   19  C           1     175.286 190.710 269.920  0.00  0.00     0.035 C 
BRANCH  17  20
HETATM   20  C           1     174.743 193.476 272.345  0.00  0.00     0.268 C 
HETATM   21  C           1     174.340 193.427 273.812  0.00  0.00     0.037 C 
ENDBRANCH  17  20
ENDBRANCH  13  14
ENDBRANCH  12  13
ENDBRANCH  10  12
ENDBRANCH   9  10
ENDBRANCH   6   9
BRANCH   5  22
HETATM   22  S           1     175.169 186.533 271.640  0.00  0.00    -0.107 SA
BRANCH  22  23
HETATM   23  C           1     174.951 185.244 272.900  0.00  0.00     0.122 C 
BRANCH  23  24
HETATM   24  C           1     175.926 185.466 274.014  0.00  0.00    -0.049 A 
HETATM   25  C           1     177.114 186.156 273.774  0.00  0.00     0.008 A 
HETATM   26  C           1     178.021 186.362 274.814  0.00  0.00     0.001 A 
HETATM   27  C           1     177.741 185.879 276.092  0.00  0.00     0.000 A 
HETATM   28  C           1     176.553 185.189 276.330  0.00  0.00     0.001 A 
HETATM   29  C           1     175.645 184.982 275.292  0.00  0.00     0.008 A 
ENDBRANCH  23  24
ENDBRANCH  22  23
ENDBRANCH   5  22
TORSDOF 9
ENDMDL
MODEL 8
REMARK VINA RESULT:      -6.7      7.941     12.506
REMARK  9 active torsions:
REMARK  status: ('A' for Active; 'I' for Inactive)
REMARK    1  A    between atoms: C_5  and  S_21 
REMARK    2  A    between atoms: C_6  and  C_8 
REMARK    3  A    between atoms: C_8  and  N_9 
REMARK    4  A    between atoms: N_9  and  C_10 
REMARK    5  A    between atoms: C_10  and  C_11 
REMARK    6  A    between atoms: C_11  and  C_12 
REMARK    7  A    between atoms: N_15  and  C_18 
REMARK    8  A    between atoms: S_21  and  C_28 
REMARK    9  A    between atoms: C_22  and  C_28 
ROOT
HETATM    1  C           1     176.585 185.638 275.366  0.00  0.00     0.027 A 
HETATM    2  C           1     175.367 185.014 275.588  0.00  0.00     0.108 A 
HETATM    3  N           1     174.332 185.058 274.721  0.00  0.00    -0.359 N 
ATOM      4  HN          1     173.449 184.587 274.917  1.00  0.00     0.166 HD
HETATM    5  C           1     174.525 185.758 273.582  0.00  0.00     0.078 A 
HETATM    6  C           1     175.706 186.414 273.271  0.00  0.00     0.004 A 
HETATM    7  C           1     176.753 186.351 274.184  0.00  0.00     0.032 A 
HETATM    8 Br           1     177.972 185.523 276.631  0.00  0.00    -0.050 Br
ENDROOT
BRANCH   6   9
HETATM    9  C           1     175.849 187.172 271.989  0.00  0.00     0.307 C 
BRANCH   9  10
HETATM   10  N           1     175.912 188.581 272.268  0.00  0.00     0.087 N 
HETATM   11  H           1     175.460 188.772 273.161  0.00  0.00     0.316 HD
BRANCH  10  12
HETATM   12  C           1     175.209 189.268 271.218  0.00  0.00     0.270 C 
BRANCH  12  13
HETATM   13  C           1     175.144 188.380 269.983  0.00  0.00     0.034 C 
BRANCH  13  14
HETATM   14  C           1     173.804 188.574 269.287  0.00  0.00    -0.010 C 
HETATM   15  C           1     172.809 189.177 270.275  0.00  0.00     0.035 C 
HETATM   16  C           1     171.509 189.573 269.579  0.00  0.00     0.272 C 
HETATM   17  N           1     171.757 190.484 268.460  0.00  0.00     0.088 N 
HETATM   18  C           1     172.650 189.884 267.469  0.00  0.00     0.272 C 
HETATM   19  C           1     173.993 189.498 268.088  0.00  0.00     0.035 C 
BRANCH  17  20
HETATM   20  C           1     170.482 190.693 267.829  0.00  0.00     0.268 C 
HETATM   21  C           1     170.433 189.925 266.515  0.00  0.00     0.037 C 
ENDBRANCH  17  20
ENDBRANCH  13  14
ENDBRANCH  12  13
ENDBRANCH  10  12
ENDBRANCH   9  10
ENDBRANCH   6   9
BRANCH   5  22
HETATM   22  S           1     173.160 185.844 272.389  0.00  0.00    -0.107 SA
BRANCH  22  23
HETATM   23  C           1     173.335 184.113 271.871  0.00  0.00     0.122 C 
BRANCH  23  24
HETATM   24  C           1     174.436 184.002 270.862  0.00  0.00    -0.049 A 
HETATM   25  C           1     174.371 184.732 269.676  0.00  0.00     0.008 A 
HETATM   26  C           1     175.397 184.629 268.737  0.00  0.00     0.001 A 
HETATM   27  C           1     176.488 183.796 268.984  0.00  0.00     0.000 A 
HETATM   28  C           1     176.552 183.065 270.170  0.00  0.00     0.001 A 
HETATM   29  C           1     175.526 183.168 271.110  0.00  0.00     0.008 A 
ENDBRANCH  23  24
ENDBRANCH  22  23
ENDBRANCH   5  22
TORSDOF 9
ENDMDL
MODEL 9
REMARK VINA RESULT:      -6.6      9.455     15.783
REMARK  9 active torsions:
REMARK  status: ('A' for Active; 'I' for Inactive)
REMARK    1  A    between atoms: C_5  and  S_21 
REMARK    2  A    between atoms: C_6  and  C_8 
REMARK    3  A    between atoms: C_8  and  N_9 
REMARK    4  A    between atoms: N_9  and  C_10 
REMARK    5  A    between atoms: C_10  and  C_11 
REMARK    6  A    between atoms: C_11  and  C_12 
REMARK    7  A    between atoms: N_15  and  C_18 
REMARK    8  A    between atoms: S_21  and  C_28 
REMARK    9  A    between atoms: C_22  and  C_28 
ROOT
HETATM    1  C           1     174.535 188.543 268.994  0.00  0.00     0.027 A 
HETATM    2  C           1     174.456 188.514 270.378  0.00  0.00     0.108 A 
HETATM    3  N           1     174.761 187.430 271.125  0.00  0.00    -0.359 N 
ATOM      4  HN          1     174.691 187.444 272.142  1.00  0.00     0.166 HD
HETATM    5  C           1     175.162 186.328 270.456  0.00  0.00     0.078 A 
HETATM    6  C           1     175.273 186.260 269.077  0.00  0.00     0.004 A 
HETATM    7  C           1     174.951 187.391 268.335  0.00  0.00     0.032 A 
HETATM    8 Br           1     174.092 190.099 268.035  0.00  0.00    -0.050 Br
ENDROOT
BRANCH   6   9
HETATM    9  C           1     175.724 185.002 268.403  0.00  0.00     0.307 C 
BRANCH   9  10
HETATM   10  N           1     177.035 185.199 267.846  0.00  0.00     0.087 N 
HETATM   11  H           1     177.067 186.094 267.360  0.00  0.00     0.316 HD
BRANCH  10  12
HETATM   12  C           1     177.277 184.136 266.909  0.00  0.00     0.270 C 
BRANCH  12  13
HETATM   13  C           1     176.206 184.157 265.827  0.00  0.00     0.034 C 
BRANCH  13  14
HETATM   14  C           1     176.557 183.146 264.744  0.00  0.00    -0.010 C 
HETATM   15  C           1     176.973 183.891 263.479  0.00  0.00     0.035 C 
HETATM   16  C           1     177.521 182.930 262.426  0.00  0.00     0.272 C 
HETATM   17  N           1     178.628 182.131 262.954  0.00  0.00     0.088 N 
HETATM   18  C           1     178.217 181.353 264.123  0.00  0.00     0.272 C 
HETATM   19  C           1     177.694 182.257 265.239  0.00  0.00     0.035 C 
BRANCH  17  20
HETATM   20  C           1     178.979 181.203 261.913  0.00  0.00     0.268 C 
HETATM   21  C           1     180.486 180.984 261.914  0.00  0.00     0.037 C 
ENDBRANCH  17  20
ENDBRANCH  13  14
ENDBRANCH  12  13
ENDBRANCH  10  12
ENDBRANCH   9  10
ENDBRANCH   6   9
BRANCH   5  22
HETATM   22  S           1     175.581 184.848 271.421  0.00  0.00    -0.107 SA
BRANCH  22  23
HETATM   23  C           1     174.813 185.468 272.945  0.00  0.00     0.122 C 
BRANCH  23  24
HETATM   24  C           1     175.852 185.585 274.016  0.00  0.00    -0.049 A 
HETATM   25  C           1     177.045 186.261 273.759  0.00  0.00     0.008 A 
HETATM   26  C           1     178.013 186.369 274.758  0.00  0.00     0.001 A 
HETATM   27  C           1     177.788 185.803 276.012  0.00  0.00     0.000 A 
HETATM   28  C           1     176.595 185.127 276.268  0.00  0.00     0.001 A 
HETATM   29  C           1     175.627 185.018 275.270  0.00  0.00     0.008 A 
ENDBRANCH  23  24
ENDBRANCH  22  23
ENDBRANCH   5  22
TORSDOF 9
ENDMDL
