MODEL 1
REMARK VINA RESULT:      -7.6      0.000      0.000
REMARK  12 active torsions:
REMARK  status: ('A' for Active; 'I' for Inactive)
REMARK    1  A    between atoms: C2_2  and  N1_3 
REMARK    2  A    between atoms: C7_8  and  C8_9 
REMARK    3  A    between atoms: C8_9  and  C9_10 
REMARK    4  A    between atoms: C9_10  and  N2_11 
REMARK    5  A    between atoms: N2_11  and  C10_12 
REMARK    6  A    between atoms: C10_12  and  C11_13 
REMARK    7  A    between atoms: C15_17  and  O1_18 
REMARK    8  A    between atoms: C17_20  and  O2_21 
REMARK    9  A    between atoms: C19_23  and  O3_24 
REMARK   10  A    between atoms: C22_28  and  S1_29 
REMARK   11  A    between atoms: S1_29  and  C23_30 
REMARK   12  A    between atoms: C23_30  and  C24_31 
ROOT
HETATM    1  C11 UNL     1     173.365 187.576 280.897  1.00  0.00     0.006 A 
HETATM    2  C12 UNL     1     173.276 188.752 281.659  1.00  0.00     0.025 A 
HETATM    3  C13 UNL     1     172.248 189.672 281.430  1.00  0.00    -0.001 A 
HETATM    4  C14 UNL     1     172.162 190.853 282.171  1.00  0.00     0.053 A 
HETATM    5  C15 UNL     1     171.113 191.754 281.970  1.00  0.00     0.105 A 
HETATM    6  C17 UNL     1     170.129 191.486 280.977  1.00  0.00     0.137 A 
HETATM    7  C19 UNL     1     170.241 190.302 280.195  1.00  0.00     0.134 A 
HETATM    8  C21 UNL     1     171.290 189.397 280.442  1.00  0.00     0.104 A 
HETATM    9  N3  UNL     1     171.370 188.233 279.745  1.00  0.00    -0.238 NA
HETATM   10  C22 UNL     1     172.357 187.319 279.943  1.00  0.00     0.102 A 
ENDROOT
BRANCH   1  11
HETATM   11  C10 UNL     1     174.581 186.684 281.070  1.00  0.00     0.311 C 
BRANCH  11  12
HETATM   12  N2  UNL     1     175.523 187.235 282.064  1.00  0.00     0.087 N 
HETATM   13  H19 UNL     1     176.336 187.662 281.562  1.00  0.00     0.316 HD
BRANCH  12  14
HETATM   14  C9  UNL     1     175.983 186.203 283.016  1.00  0.00     0.270 C 
BRANCH  14  15
HETATM   15  C8  UNL     1     174.957 185.057 283.178  1.00  0.00     0.034 C 
BRANCH  15  16
HETATM   16  C7  UNL     1     174.142 185.085 284.500  1.00  0.00    -0.010 C 
HETATM   17  C4  UNL     1     174.909 184.484 285.713  1.00  0.00     0.035 C 
HETATM   18  C3  UNL     1     175.198 185.524 286.811  1.00  0.00     0.272 C 
HETATM   19  N1  UNL     1     173.979 186.233 287.284  1.00  0.00     0.088 N 
HETATM   20  C5  UNL     1     172.960 186.474 286.227  1.00  0.00     0.272 C 
HETATM   21  C6  UNL     1     173.566 186.475 284.819  1.00  0.00     0.035 C 
BRANCH  19  22
HETATM   22  C2  UNL     1     173.391 185.578 288.473  1.00  0.00     0.268 C 
HETATM   23  C1  UNL     1     174.276 185.764 289.707  1.00  0.00     0.037 C 
ENDBRANCH  19  22
ENDBRANCH  15  16
ENDBRANCH  14  15
ENDBRANCH  12  14
ENDBRANCH  11  12
ENDBRANCH   1  11
BRANCH  10  24
HETATM   24  S1  UNL     1     172.345 185.830 278.932  1.00  0.00    -0.105 SA
BRANCH  24  25
HETATM   25  C23 UNL     1     172.831 186.697 277.392  1.00  0.00     0.119 C 
BRANCH  25  26
HETATM   26  C24 UNL     1     174.199 186.310 276.856  1.00  0.00    -0.049 A 
HETATM   27  C25 UNL     1     175.408 186.795 277.397  1.00  0.00     0.008 A 
HETATM   28  C26 UNL     1     176.637 186.371 276.881  1.00  0.00     0.001 A 
HETATM   29  C27 UNL     1     176.682 185.460 275.826  1.00  0.00     0.000 A 
HETATM   30  C28 UNL     1     175.494 184.965 275.286  1.00  0.00     0.001 A 
HETATM   31  C29 UNL     1     174.261 185.384 275.798  1.00  0.00     0.008 A 
ENDBRANCH  25  26
ENDBRANCH  24  25
ENDBRANCH  10  24
BRANCH   5  32
HETATM   32  O1  UNL     1     171.107 192.891 282.801  1.00  0.00    -0.353 OA
HETATM   33  C16 UNL     1     170.279 193.110 283.938  1.00  0.00     0.210 C 
ENDBRANCH   5  32
BRANCH   7  34
HETATM   34  O3  UNL     1     169.296 190.011 279.202  1.00  0.00    -0.351 OA
HETATM   35  C20 UNL     1     169.415 190.480 277.860  1.00  0.00     0.210 C 
ENDBRANCH   7  34
BRANCH   6  36
HETATM   36  O2  UNL     1     169.081 192.413 280.804  1.00  0.00    -0.351 OA
HETATM   37  C18 UNL     1     169.067 193.549 279.941  1.00  0.00     0.210 C 
ENDBRANCH   6  36
TORSDOF 12
ENDMDL
MODEL 2
REMARK VINA RESULT:      -7.0      8.927     13.881
REMARK  12 active torsions:
REMARK  status: ('A' for Active; 'I' for Inactive)
REMARK    1  A    between atoms: C2_2  and  N1_3 
REMARK    2  A    between atoms: C7_8  and  C8_9 
REMARK    3  A    between atoms: C8_9  and  C9_10 
REMARK    4  A    between atoms: C9_10  and  N2_11 
REMARK    5  A    between atoms: N2_11  and  C10_12 
REMARK    6  A    between atoms: C10_12  and  C11_13 
REMARK    7  A    between atoms: C15_17  and  O1_18 
REMARK    8  A    between atoms: C17_20  and  O2_21 
REMARK    9  A    between atoms: C19_23  and  O3_24 
REMARK   10  A    between atoms: C22_28  and  S1_29 
REMARK   11  A    between atoms: S1_29  and  C23_30 
REMARK   12  A    between atoms: C23_30  and  C24_31 
ROOT
HETATM    1  C11 UNL     1     174.276 187.459 269.020  1.00  0.00     0.006 A 
HETATM    2  C12 UNL     1     174.575 187.009 267.724  1.00  0.00     0.025 A 
HETATM    3  C13 UNL     1     174.951 185.679 267.502  1.00  0.00    -0.001 A 
HETATM    4  C14 UNL     1     175.268 185.227 266.219  1.00  0.00     0.053 A 
HETATM    5  C15 UNL     1     175.606 183.891 265.991  1.00  0.00     0.105 A 
HETATM    6  C17 UNL     1     175.658 182.976 267.080  1.00  0.00     0.137 A 
HETATM    7  C19 UNL     1     175.376 183.449 268.392  1.00  0.00     0.134 A 
HETATM    8  C21 UNL     1     175.007 184.793 268.588  1.00  0.00     0.104 A 
HETATM    9  N3  UNL     1     174.673 185.239 269.827  1.00  0.00    -0.238 NA
HETATM   10  C22 UNL     1     174.305 186.524 270.076  1.00  0.00     0.102 A 
ENDROOT
BRANCH   1  11
HETATM   11  C10 UNL     1     174.027 188.940 269.238  1.00  0.00     0.311 C 
BRANCH  11  12
HETATM   12  N2  UNL     1     175.273 189.723 269.136  1.00  0.00     0.087 N 
HETATM   13  H19 UNL     1     175.986 189.163 268.614  1.00  0.00     0.316 HD
BRANCH  12  14
HETATM   14  C9  UNL     1     175.790 190.111 270.466  1.00  0.00     0.270 C 
BRANCH  14  15
HETATM   15  C8  UNL     1     175.785 191.645 270.670  1.00  0.00     0.034 C 
BRANCH  15  16
HETATM   16  C7  UNL     1     174.483 192.221 271.291  1.00  0.00    -0.010 C 
HETATM   17  C4  UNL     1     173.633 191.159 272.045  1.00  0.00     0.035 C 
HETATM   18  C3  UNL     1     173.522 191.444 273.555  1.00  0.00     0.272 C 
HETATM   19  N1  UNL     1     173.013 192.809 273.859  1.00  0.00     0.088 N 
HETATM   20  C5  UNL     1     173.448 193.855 272.894  1.00  0.00     0.272 C 
HETATM   21  C6  UNL     1     174.733 193.471 272.153  1.00  0.00     0.035 C 
BRANCH  19  22
HETATM   22  C2  UNL     1     171.546 192.816 274.051  1.00  0.00     0.268 C 
HETATM   23  C1  UNL     1     170.854 193.703 273.016  1.00  0.00     0.037 C 
ENDBRANCH  19  22
ENDBRANCH  15  16
ENDBRANCH  14  15
ENDBRANCH  12  14
ENDBRANCH  11  12
ENDBRANCH   1  11
BRANCH  10  24
HETATM   24  S1  UNL     1     173.906 186.975 271.774  1.00  0.00    -0.105 SA
BRANCH  24  25
HETATM   25  C23 UNL     1     174.478 185.385 272.483  1.00  0.00     0.119 C 
BRANCH  25  26
HETATM   26  C24 UNL     1     175.521 185.522 273.578  1.00  0.00    -0.049 A 
HETATM   27  C25 UNL     1     176.756 186.181 273.394  1.00  0.00     0.008 A 
HETATM   28  C26 UNL     1     177.659 186.306 274.454  1.00  0.00     0.001 A 
HETATM   29  C27 UNL     1     177.349 185.783 275.709  1.00  0.00     0.000 A 
HETATM   30  C28 UNL     1     176.129 185.137 275.910  1.00  0.00     0.001 A 
HETATM   31  C29 UNL     1     175.220 185.009 274.853  1.00  0.00     0.008 A 
ENDBRANCH  25  26
ENDBRANCH  24  25
ENDBRANCH  10  24
BRANCH   5  32
HETATM   32  O1  UNL     1     175.867 183.540 264.652  1.00  0.00    -0.353 OA
HETATM   33  C16 UNL     1     176.097 184.432 263.567  1.00  0.00     0.210 C 
ENDBRANCH   5  32
BRANCH   7  34
HETATM   34  O3  UNL     1     175.428 182.580 269.490  1.00  0.00    -0.351 OA
HETATM   35  C20 UNL     1     176.590 182.431 270.305  1.00  0.00     0.210 C 
ENDBRANCH   7  34
BRANCH   6  36
HETATM   36  O2  UNL     1     175.997 181.634 266.813  1.00  0.00    -0.351 OA
HETATM   37  C18 UNL     1     175.102 180.543 266.604  1.00  0.00     0.210 C 
ENDBRANCH   6  36
TORSDOF 12
ENDMDL
MODEL 3
REMARK VINA RESULT:      -7.0      3.054      8.284
REMARK  12 active torsions:
REMARK  status: ('A' for Active; 'I' for Inactive)
REMARK    1  A    between atoms: C2_2  and  N1_3 
REMARK    2  A    between atoms: C7_8  and  C8_9 
REMARK    3  A    between atoms: C8_9  and  C9_10 
REMARK    4  A    between atoms: C9_10  and  N2_11 
REMARK    5  A    between atoms: N2_11  and  C10_12 
REMARK    6  A    between atoms: C10_12  and  C11_13 
REMARK    7  A    between atoms: C15_17  and  O1_18 
REMARK    8  A    between atoms: C17_20  and  O2_21 
REMARK    9  A    between atoms: C19_23  and  O3_24 
REMARK   10  A    between atoms: C22_28  and  S1_29 
REMARK   11  A    between atoms: S1_29  and  C23_30 
REMARK   12  A    between atoms: C23_30  and  C24_31 
ROOT
HETATM    1  C11 UNL     1     172.281 187.311 286.180  1.00  0.00     0.006 A 
HETATM    2  C12 UNL     1     172.673 187.942 284.988  1.00  0.00     0.025 A 
HETATM    3  C13 UNL     1     171.786 188.780 284.302  1.00  0.00    -0.001 A 
HETATM    4  C14 UNL     1     172.160 189.397 283.107  1.00  0.00     0.053 A 
HETATM    5  C15 UNL     1     171.290 190.264 282.442  1.00  0.00     0.105 A 
HETATM    6  C17 UNL     1     169.990 190.505 282.968  1.00  0.00     0.137 A 
HETATM    7  C19 UNL     1     169.595 189.842 284.164  1.00  0.00     0.134 A 
HETATM    8  C21 UNL     1     170.505 188.999 284.830  1.00  0.00     0.104 A 
HETATM    9  N3  UNL     1     170.161 188.412 286.006  1.00  0.00    -0.238 NA
HETATM   10  C22 UNL     1     170.999 187.593 286.696  1.00  0.00     0.102 A 
ENDROOT
BRANCH   1  11
HETATM   11  C10 UNL     1     173.215 186.291 286.806  1.00  0.00     0.311 C 
BRANCH  11  12
HETATM   12  N2  UNL     1     173.027 184.949 286.222  1.00  0.00     0.087 N 
HETATM   13  H19 UNL     1     172.520 184.346 286.910  1.00  0.00     0.316 HD
BRANCH  12  14
HETATM   14  C9  UNL     1     174.313 184.332 285.836  1.00  0.00     0.270 C 
BRANCH  14  15
HETATM   15  C8  UNL     1     175.252 185.333 285.124  1.00  0.00     0.034 C 
BRANCH  15  16
HETATM   16  C7  UNL     1     175.114 185.380 283.577  1.00  0.00    -0.010 C 
HETATM   17  C4  UNL     1     173.776 184.782 283.057  1.00  0.00     0.035 C 
HETATM   18  C3  UNL     1     172.884 185.828 282.363  1.00  0.00     0.272 C 
HETATM   19  N1  UNL     1     173.576 186.553 281.264  1.00  0.00     0.088 N 
HETATM   20  C5  UNL     1     175.024 186.795 281.504  1.00  0.00     0.272 C 
HETATM   21  C6  UNL     1     175.381 186.779 282.995  1.00  0.00     0.035 C 
BRANCH  19  22
HETATM   22  C2  UNL     1     173.338 185.914 279.951  1.00  0.00     0.268 C 
HETATM   23  C1  UNL     1     171.958 186.271 279.399  1.00  0.00     0.037 C 
ENDBRANCH  19  22
ENDBRANCH  15  16
ENDBRANCH  14  15
ENDBRANCH  12  14
ENDBRANCH  11  12
ENDBRANCH   1  11
BRANCH  10  24
HETATM   24  S1  UNL     1     170.399 186.872 288.234  1.00  0.00    -0.105 SA
BRANCH  24  25
HETATM   25  C23 UNL     1     171.487 187.889 289.302  1.00  0.00     0.119 C 
BRANCH  25  26
HETATM   26  C24 UNL     1     171.749 187.299 290.678  1.00  0.00    -0.049 A 
HETATM   27  C25 UNL     1     171.493 187.993 291.879  1.00  0.00     0.008 A 
HETATM   28  C26 UNL     1     171.721 187.381 293.116  1.00  0.00     0.001 A 
HETATM   29  C27 UNL     1     172.201 186.073 293.176  1.00  0.00     0.000 A 
HETATM   30  C28 UNL     1     172.451 185.370 291.997  1.00  0.00     0.001 A 
HETATM   31  C29 UNL     1     172.224 185.977 290.756  1.00  0.00     0.008 A 
ENDBRANCH  25  26
ENDBRANCH  24  25
ENDBRANCH  10  24
BRANCH   5  32
HETATM   32  O1  UNL     1     171.789 190.860 281.267  1.00  0.00    -0.353 OA
HETATM   33  C16 UNL     1     172.586 192.036 281.181  1.00  0.00     0.210 C 
ENDBRANCH   5  32
BRANCH   7  34
HETATM   34  O3  UNL     1     168.319 190.047 284.706  1.00  0.00    -0.351 OA
HETATM   35  C20 UNL     1     168.021 191.115 285.603  1.00  0.00     0.210 C 
ENDBRANCH   7  34
BRANCH   6  36
HETATM   36  O2  UNL     1     169.138 191.389 282.275  1.00  0.00    -0.351 OA
HETATM   37  C18 UNL     1     169.044 192.803 282.440  1.00  0.00     0.210 C 
ENDBRANCH   6  36
TORSDOF 12
ENDMDL
MODEL 4
REMARK VINA RESULT:      -6.9      2.939      8.560
REMARK  12 active torsions:
REMARK  status: ('A' for Active; 'I' for Inactive)
REMARK    1  A    between atoms: C2_2  and  N1_3 
REMARK    2  A    between atoms: C7_8  and  C8_9 
REMARK    3  A    between atoms: C8_9  and  C9_10 
REMARK    4  A    between atoms: C9_10  and  N2_11 
REMARK    5  A    between atoms: N2_11  and  C10_12 
REMARK    6  A    between atoms: C10_12  and  C11_13 
REMARK    7  A    between atoms: C15_17  and  O1_18 
REMARK    8  A    between atoms: C17_20  and  O2_21 
REMARK    9  A    between atoms: C19_23  and  O3_24 
REMARK   10  A    between atoms: C22_28  and  S1_29 
REMARK   11  A    between atoms: S1_29  and  C23_30 
REMARK   12  A    between atoms: C23_30  and  C24_31 
ROOT
HETATM    1  C11 UNL     1     173.343 186.567 285.117  1.00  0.00     0.006 A 
HETATM    2  C12 UNL     1     173.061 187.548 284.153  1.00  0.00     0.025 A 
HETATM    3  C13 UNL     1     171.916 188.345 284.263  1.00  0.00    -0.001 A 
HETATM    4  C14 UNL     1     171.617 189.311 283.300  1.00  0.00     0.053 A 
HETATM    5  C15 UNL     1     170.496 190.134 283.429  1.00  0.00     0.105 A 
HETATM    6  C17 UNL     1     169.623 189.973 284.541  1.00  0.00     0.137 A 
HETATM    7  C19 UNL     1     169.906 188.960 285.501  1.00  0.00     0.134 A 
HETATM    8  C21 UNL     1     171.061 188.168 285.361  1.00  0.00     0.104 A 
HETATM    9  N3  UNL     1     171.376 187.242 286.305  1.00  0.00    -0.238 NA
HETATM   10  C22 UNL     1     172.479 186.451 286.227  1.00  0.00     0.102 A 
ENDROOT
BRANCH   1  11
HETATM   11  C10 UNL     1     174.506 185.622 284.877  1.00  0.00     0.311 C 
BRANCH  11  12
HETATM   12  N2  UNL     1     175.508 186.211 283.968  1.00  0.00     0.087 N 
HETATM   13  H19 UNL     1     175.302 187.231 283.849  1.00  0.00     0.316 HD
BRANCH  12  14
HETATM   14  C9  UNL     1     175.531 185.529 282.657  1.00  0.00     0.270 C 
BRANCH  14  15
HETATM   15  C8  UNL     1     175.740 186.518 281.486  1.00  0.00     0.034 C 
BRANCH  15  16
HETATM   16  C7  UNL     1     174.440 186.966 280.763  1.00  0.00    -0.010 C 
HETATM   17  C4  UNL     1     174.637 187.231 279.243  1.00  0.00     0.035 C 
HETATM   18  C3  UNL     1     173.836 186.258 278.358  1.00  0.00     0.272 C 
HETATM   19  N1  UNL     1     172.384 186.229 278.683  1.00  0.00     0.088 N 
HETATM   20  C5  UNL     1     172.075 186.411 280.128  1.00  0.00     0.272 C 
HETATM   21  C6  UNL     1     173.252 186.027 281.031  1.00  0.00     0.035 C 
BRANCH  19  22
HETATM   22  C2  UNL     1     171.614 187.167 277.837  1.00  0.00     0.268 C 
HETATM   23  C1  UNL     1     171.716 186.793 276.357  1.00  0.00     0.037 C 
ENDBRANCH  19  22
ENDBRANCH  15  16
ENDBRANCH  14  15
ENDBRANCH  12  14
ENDBRANCH  11  12
ENDBRANCH   1  11
BRANCH  10  24
HETATM   24  S1  UNL     1     172.758 185.256 287.544  1.00  0.00    -0.105 SA
BRANCH  24  25
HETATM   25  C23 UNL     1     173.576 186.458 288.658  1.00  0.00     0.119 C 
BRANCH  25  26
HETATM   26  C24 UNL     1     172.830 186.727 289.954  1.00  0.00    -0.049 A 
HETATM   27  C25 UNL     1     172.972 185.930 291.109  1.00  0.00     0.008 A 
HETATM   28  C26 UNL     1     172.284 186.252 292.284  1.00  0.00     0.001 A 
HETATM   29  C27 UNL     1     171.451 187.369 292.328  1.00  0.00     0.000 A 
HETATM   30  C28 UNL     1     171.306 188.172 291.196  1.00  0.00     0.001 A 
HETATM   31  C29 UNL     1     171.993 187.857 290.018  1.00  0.00     0.008 A 
ENDBRANCH  25  26
ENDBRANCH  24  25
ENDBRANCH  10  24
BRANCH   5  32
HETATM   32  O1  UNL     1     170.316 191.098 282.418  1.00  0.00    -0.353 OA
HETATM   33  C16 UNL     1     171.023 192.325 282.277  1.00  0.00     0.210 C 
ENDBRANCH   5  32
BRANCH   7  34
HETATM   34  O3  UNL     1     169.064 188.766 286.603  1.00  0.00    -0.351 OA
HETATM   35  C20 UNL     1     169.145 189.557 287.788  1.00  0.00     0.210 C 
ENDBRANCH   7  34
BRANCH   6  36
HETATM   36  O2  UNL     1     168.503 190.824 284.644  1.00  0.00    -0.351 OA
HETATM   37  C18 UNL     1     168.477 192.158 285.148  1.00  0.00     0.210 C 
ENDBRANCH   6  36
TORSDOF 12
ENDMDL
MODEL 5
REMARK VINA RESULT:      -6.8      5.937      9.626
REMARK  12 active torsions:
REMARK  status: ('A' for Active; 'I' for Inactive)
REMARK    1  A    between atoms: C2_2  and  N1_3 
REMARK    2  A    between atoms: C7_8  and  C8_9 
REMARK    3  A    between atoms: C8_9  and  C9_10 
REMARK    4  A    between atoms: C9_10  and  N2_11 
REMARK    5  A    between atoms: N2_11  and  C10_12 
REMARK    6  A    between atoms: C10_12  and  C11_13 
REMARK    7  A    between atoms: C15_17  and  O1_18 
REMARK    8  A    between atoms: C17_20  and  O2_21 
REMARK    9  A    between atoms: C19_23  and  O3_24 
REMARK   10  A    between atoms: C22_28  and  S1_29 
REMARK   11  A    between atoms: S1_29  and  C23_30 
REMARK   12  A    between atoms: C23_30  and  C24_31 
ROOT
HETATM    1  C11 UNL     1     175.057 186.547 274.521  1.00  0.00     0.006 A 
HETATM    2  C12 UNL     1     175.604 185.501 273.760  1.00  0.00     0.025 A 
HETATM    3  C13 UNL     1     175.471 185.490 272.367  1.00  0.00    -0.001 A 
HETATM    4  C14 UNL     1     175.996 184.446 271.604  1.00  0.00     0.053 A 
HETATM    5  C15 UNL     1     175.898 184.453 270.210  1.00  0.00     0.105 A 
HETATM    6  C17 UNL     1     175.230 185.524 269.552  1.00  0.00     0.137 A 
HETATM    7  C19 UNL     1     174.659 186.567 270.335  1.00  0.00     0.134 A 
HETATM    8  C21 UNL     1     174.802 186.549 271.735  1.00  0.00     0.104 A 
HETATM    9  N3  UNL     1     174.317 187.572 272.487  1.00  0.00    -0.238 NA
HETATM   10  C22 UNL     1     174.429 187.612 273.841  1.00  0.00     0.102 A 
ENDROOT
BRANCH   1  11
HETATM   11  C10 UNL     1     175.087 186.440 276.035  1.00  0.00     0.311 C 
BRANCH  11  12
HETATM   12  N2  UNL     1     174.234 185.339 276.520  1.00  0.00     0.087 N 
HETATM   13  H19 UNL     1     174.206 184.584 275.795  1.00  0.00     0.316 HD
BRANCH  12  14
HETATM   14  C9  UNL     1     172.867 185.802 276.841  1.00  0.00     0.270 C 
BRANCH  14  15
HETATM   15  C8  UNL     1     172.860 186.869 277.961  1.00  0.00     0.034 C 
BRANCH  15  16
HETATM   16  C7  UNL     1     173.411 186.389 279.332  1.00  0.00    -0.010 C 
HETATM   17  C4  UNL     1     174.709 187.125 279.770  1.00  0.00     0.035 C 
HETATM   18  C3  UNL     1     174.519 187.962 281.049  1.00  0.00     0.272 C 
HETATM   19  N1  UNL     1     173.973 187.176 282.188  1.00  0.00     0.088 N 
HETATM   20  C5  UNL     1     173.006 186.115 281.795  1.00  0.00     0.272 C 
HETATM   21  C6  UNL     1     172.345 186.397 280.442  1.00  0.00     0.035 C 
BRANCH  19  22
HETATM   22  C2  UNL     1     175.049 186.644 283.052  1.00  0.00     0.268 C 
HETATM   23  C1  UNL     1     175.019 185.116 283.101  1.00  0.00     0.037 C 
ENDBRANCH  19  22
ENDBRANCH  15  16
ENDBRANCH  14  15
ENDBRANCH  12  14
ENDBRANCH  11  12
ENDBRANCH   1  11
BRANCH  10  24
HETATM   24  S1  UNL     1     173.722 189.024 274.707  1.00  0.00    -0.105 SA
BRANCH  24  25
HETATM   25  C23 UNL     1     172.960 189.746 273.205  1.00  0.00     0.119 C 
BRANCH  25  26
HETATM   26  C24 UNL     1     173.679 190.966 272.656  1.00  0.00    -0.049 A 
HETATM   27  C25 UNL     1     174.345 190.979 271.413  1.00  0.00     0.008 A 
HETATM   28  C26 UNL     1     174.957 192.147 270.947  1.00  0.00     0.001 A 
HETATM   29  C27 UNL     1     174.913 193.316 271.705  1.00  0.00     0.000 A 
HETATM   30  C28 UNL     1     174.251 193.322 272.934  1.00  0.00     0.001 A 
HETATM   31  C29 UNL     1     173.635 192.157 273.405  1.00  0.00     0.008 A 
ENDBRANCH  25  26
ENDBRANCH  24  25
ENDBRANCH  10  24
BRANCH   5  32
HETATM   32  O1  UNL     1     176.498 183.368 269.542  1.00  0.00    -0.353 OA
HETATM   33  C16 UNL     1     176.380 181.991 269.879  1.00  0.00     0.210 C 
ENDBRANCH   5  32
BRANCH   7  34
HETATM   34  O3  UNL     1     173.985 187.632 269.722  1.00  0.00    -0.351 OA
HETATM   35  C20 UNL     1     172.586 187.605 269.446  1.00  0.00     0.210 C 
ENDBRANCH   7  34
BRANCH   6  36
HETATM   36  O2  UNL     1     175.154 185.504 268.144  1.00  0.00    -0.351 OA
HETATM   37  C18 UNL     1     174.134 184.907 267.344  1.00  0.00     0.210 C 
ENDBRANCH   6  36
TORSDOF 12
ENDMDL
MODEL 6
REMARK VINA RESULT:      -6.8      7.328     12.425
REMARK  12 active torsions:
REMARK  status: ('A' for Active; 'I' for Inactive)
REMARK    1  A    between atoms: C2_2  and  N1_3 
REMARK    2  A    between atoms: C7_8  and  C8_9 
REMARK    3  A    between atoms: C8_9  and  C9_10 
REMARK    4  A    between atoms: C9_10  and  N2_11 
REMARK    5  A    between atoms: N2_11  and  C10_12 
REMARK    6  A    between atoms: C10_12  and  C11_13 
REMARK    7  A    between atoms: C15_17  and  O1_18 
REMARK    8  A    between atoms: C17_20  and  O2_21 
REMARK    9  A    between atoms: C19_23  and  O3_24 
REMARK   10  A    between atoms: C22_28  and  S1_29 
REMARK   11  A    between atoms: S1_29  and  C23_30 
REMARK   12  A    between atoms: C23_30  and  C24_31 
ROOT
HETATM    1  C11 UNL     1     174.679 184.312 270.475  1.00  0.00     0.006 A 
HETATM    2  C12 UNL     1     175.749 184.665 271.314  1.00  0.00     0.025 A 
HETATM    3  C13 UNL     1     175.516 185.337 272.519  1.00  0.00    -0.001 A 
HETATM    4  C14 UNL     1     176.574 185.708 273.350  1.00  0.00     0.053 A 
HETATM    5  C15 UNL     1     176.340 186.345 274.572  1.00  0.00     0.105 A 
HETATM    6  C17 UNL     1     175.008 186.649 274.969  1.00  0.00     0.137 A 
HETATM    7  C19 UNL     1     173.933 186.307 274.101  1.00  0.00     0.134 A 
HETATM    8  C21 UNL     1     174.197 185.637 272.891  1.00  0.00     0.104 A 
HETATM    9  N3  UNL     1     173.174 185.249 272.085  1.00  0.00    -0.238 NA
HETATM   10  C22 UNL     1     173.367 184.596 270.909  1.00  0.00     0.102 A 
ENDROOT
BRANCH   1  11
HETATM   11  C10 UNL     1     174.986 183.726 269.109  1.00  0.00     0.311 C 
BRANCH  11  12
HETATM   12  N2  UNL     1     174.542 184.619 268.021  1.00  0.00     0.087 N 
HETATM   13  H19 UNL     1     174.506 184.076 267.127  1.00  0.00     0.316 HD
BRANCH  12  14
HETATM   14  C9  UNL     1     175.427 185.795 267.879  1.00  0.00     0.270 C 
BRANCH  14  15
HETATM   15  C8  UNL     1     174.635 187.124 267.866  1.00  0.00     0.034 C 
BRANCH  15  16
HETATM   16  C7  UNL     1     175.270 188.276 268.694  1.00  0.00    -0.010 C 
HETATM   17  C4  UNL     1     174.925 189.691 268.151  1.00  0.00     0.035 C 
HETATM   18  C3  UNL     1     174.087 190.524 269.140  1.00  0.00     0.272 C 
HETATM   19  N1  UNL     1     174.709 190.636 270.486  1.00  0.00     0.088 N 
HETATM   20  C5  UNL     1     175.458 189.425 270.919  1.00  0.00     0.272 C 
HETATM   21  C6  UNL     1     174.985 188.156 270.202  1.00  0.00     0.035 C 
BRANCH  19  22
HETATM   22  C2  UNL     1     175.530 191.861 270.610  1.00  0.00     0.268 C 
HETATM   23  C1  UNL     1     174.869 192.883 271.535  1.00  0.00     0.037 C 
ENDBRANCH  19  22
ENDBRANCH  15  16
ENDBRANCH  14  15
ENDBRANCH  12  14
ENDBRANCH  11  12
ENDBRANCH   1  11
BRANCH  10  24
HETATM   24  S1  UNL     1     171.915 184.159 269.937  1.00  0.00    -0.105 SA
BRANCH  24  25
HETATM   25  C23 UNL     1     171.175 185.833 270.023  1.00  0.00     0.119 C 
BRANCH  25  26
HETATM   26  C24 UNL     1     171.236 186.617 268.724  1.00  0.00    -0.049 A 
HETATM   27  C25 UNL     1     171.235 186.007 267.451  1.00  0.00     0.008 A 
HETATM   28  C26 UNL     1     171.254 186.787 266.290  1.00  0.00     0.001 A 
HETATM   29  C27 UNL     1     171.272 188.179 266.376  1.00  0.00     0.000 A 
HETATM   30  C28 UNL     1     171.264 188.797 267.628  1.00  0.00     0.001 A 
HETATM   31  C29 UNL     1     171.243 188.023 268.793  1.00  0.00     0.008 A 
ENDBRANCH  25  26
ENDBRANCH  24  25
ENDBRANCH  10  24
BRANCH   5  32
HETATM   32  O1  UNL     1     177.481 186.637 275.345  1.00  0.00    -0.353 OA
HETATM   33  C16 UNL     1     178.028 185.840 276.390  1.00  0.00     0.210 C 
ENDBRANCH   5  32
BRANCH   7  34
HETATM   34  O3  UNL     1     172.609 186.600 274.454  1.00  0.00    -0.351 OA
HETATM   35  C20 UNL     1     172.015 187.879 274.238  1.00  0.00     0.210 C 
ENDBRANCH   7  34
BRANCH   6  36
HETATM   36  O2  UNL     1     174.807 187.287 276.211  1.00  0.00    -0.351 OA
HETATM   37  C18 UNL     1     174.492 186.669 277.457  1.00  0.00     0.210 C 
ENDBRANCH   6  36
TORSDOF 12
ENDMDL
MODEL 7
REMARK VINA RESULT:      -6.8      3.174      6.890
REMARK  12 active torsions:
REMARK  status: ('A' for Active; 'I' for Inactive)
REMARK    1  A    between atoms: C2_2  and  N1_3 
REMARK    2  A    between atoms: C7_8  and  C8_9 
REMARK    3  A    between atoms: C8_9  and  C9_10 
REMARK    4  A    between atoms: C9_10  and  N2_11 
REMARK    5  A    between atoms: N2_11  and  C10_12 
REMARK    6  A    between atoms: C10_12  and  C11_13 
REMARK    7  A    between atoms: C15_17  and  O1_18 
REMARK    8  A    between atoms: C17_20  and  O2_21 
REMARK    9  A    between atoms: C19_23  and  O3_24 
REMARK   10  A    between atoms: C22_28  and  S1_29 
REMARK   11  A    between atoms: S1_29  and  C23_30 
REMARK   12  A    between atoms: C23_30  and  C24_31 
ROOT
HETATM    1  C11 UNL     1     172.427 186.600 278.598  1.00  0.00     0.006 A 
HETATM    2  C12 UNL     1     173.695 186.237 278.117  1.00  0.00     0.025 A 
HETATM    3  C13 UNL     1     173.982 186.297 276.748  1.00  0.00    -0.001 A 
HETATM    4  C14 UNL     1     175.234 185.920 276.259  1.00  0.00     0.053 A 
HETATM    5  C15 UNL     1     175.533 186.017 274.898  1.00  0.00     0.105 A 
HETATM    6  C17 UNL     1     174.544 186.480 273.985  1.00  0.00     0.137 A 
HETATM    7  C19 UNL     1     173.254 186.824 274.480  1.00  0.00     0.134 A 
HETATM    8  C21 UNL     1     172.992 186.747 275.861  1.00  0.00     0.104 A 
HETATM    9  N3  UNL     1     171.785 187.134 276.353  1.00  0.00    -0.238 NA
HETATM   10  C22 UNL     1     171.476 187.086 277.676  1.00  0.00     0.102 A 
ENDROOT
BRANCH   1  11
HETATM   11  C10 UNL     1     172.110 186.371 280.064  1.00  0.00     0.311 C 
BRANCH  11  12
HETATM   12  N2  UNL     1     173.052 185.418 280.682  1.00  0.00     0.087 N 
HETATM   13  H19 UNL     1     172.541 184.534 280.913  1.00  0.00     0.316 HD
BRANCH  12  14
HETATM   14  C9  UNL     1     173.689 185.980 281.891  1.00  0.00     0.270 C 
BRANCH  14  15
HETATM   15  C8  UNL     1     172.782 187.009 282.606  1.00  0.00     0.034 C 
BRANCH  15  16
HETATM   16  C7  UNL     1     172.480 186.696 284.097  1.00  0.00    -0.010 C 
HETATM   17  C4  UNL     1     173.012 185.310 284.559  1.00  0.00     0.035 C 
HETATM   18  C3  UNL     1     174.105 185.419 285.639  1.00  0.00     0.272 C 
HETATM   19  N1  UNL     1     173.685 186.219 286.820  1.00  0.00     0.088 N 
HETATM   20  C5  UNL     1     172.783 187.359 286.501  1.00  0.00     0.272 C 
HETATM   21  C6  UNL     1     172.920 187.824 285.047  1.00  0.00     0.035 C 
BRANCH  19  22
HETATM   22  C2  UNL     1     173.127 185.364 287.891  1.00  0.00     0.268 C 
HETATM   23  C1  UNL     1     171.599 185.411 287.903  1.00  0.00     0.037 C 
ENDBRANCH  19  22
ENDBRANCH  15  16
ENDBRANCH  14  15
ENDBRANCH  12  14
ENDBRANCH  11  12
ENDBRANCH   1  11
BRANCH  10  24
HETATM   24  S1  UNL     1     169.830 187.616 278.178  1.00  0.00    -0.105 SA
BRANCH  24  25
HETATM   25  C23 UNL     1     170.318 189.362 278.447  1.00  0.00     0.119 C 
BRANCH  25  26
HETATM   26  C24 UNL     1     170.120 189.860 279.869  1.00  0.00    -0.049 A 
HETATM   27  C25 UNL     1     168.872 190.278 280.376  1.00  0.00     0.008 A 
HETATM   28  C26 UNL     1     168.748 190.691 281.707  1.00  0.00     0.001 A 
HETATM   29  C27 UNL     1     169.859 190.692 282.551  1.00  0.00     0.000 A 
HETATM   30  C28 UNL     1     171.099 190.273 282.066  1.00  0.00     0.001 A 
HETATM   31  C29 UNL     1     171.229 189.857 280.736  1.00  0.00     0.008 A 
ENDBRANCH  25  26
ENDBRANCH  24  25
ENDBRANCH  10  24
BRANCH   5  32
HETATM   32  O1  UNL     1     176.840 185.647 274.524  1.00  0.00    -0.353 OA
HETATM   33  C16 UNL     1     178.037 186.371 274.783  1.00  0.00     0.210 C 
ENDBRANCH   5  32
BRANCH   7  34
HETATM   34  O3  UNL     1     172.252 187.273 273.610  1.00  0.00    -0.351 OA
HETATM   35  C20 UNL     1     172.168 188.623 273.158  1.00  0.00     0.210 C 
ENDBRANCH   7  34
BRANCH   6  36
HETATM   36  O2  UNL     1     174.881 186.571 272.619  1.00  0.00    -0.351 OA
HETATM   37  C18 UNL     1     174.454 185.709 271.566  1.00  0.00     0.210 C 
ENDBRANCH   6  36
TORSDOF 12
ENDMDL
MODEL 8
REMARK VINA RESULT:      -6.7      3.711      7.199
REMARK  12 active torsions:
REMARK  status: ('A' for Active; 'I' for Inactive)
REMARK    1  A    between atoms: C2_2  and  N1_3 
REMARK    2  A    between atoms: C7_8  and  C8_9 
REMARK    3  A    between atoms: C8_9  and  C9_10 
REMARK    4  A    between atoms: C9_10  and  N2_11 
REMARK    5  A    between atoms: N2_11  and  C10_12 
REMARK    6  A    between atoms: C10_12  and  C11_13 
REMARK    7  A    between atoms: C15_17  and  O1_18 
REMARK    8  A    between atoms: C17_20  and  O2_21 
REMARK    9  A    between atoms: C19_23  and  O3_24 
REMARK   10  A    between atoms: C22_28  and  S1_29 
REMARK   11  A    between atoms: S1_29  and  C23_30 
REMARK   12  A    between atoms: C23_30  and  C24_31 
ROOT
HETATM    1  C11 UNL     1     172.432 188.280 283.132  1.00  0.00     0.006 A 
HETATM    2  C12 UNL     1     171.728 188.436 284.336  1.00  0.00     0.025 A 
HETATM    3  C13 UNL     1     172.048 187.657 285.454  1.00  0.00    -0.001 A 
HETATM    4  C14 UNL     1     171.342 187.791 286.650  1.00  0.00     0.053 A 
HETATM    5  C15 UNL     1     171.686 187.042 287.778  1.00  0.00     0.105 A 
HETATM    6  C17 UNL     1     172.755 186.105 287.707  1.00  0.00     0.137 A 
HETATM    7  C19 UNL     1     173.448 185.939 286.475  1.00  0.00     0.134 A 
HETATM    8  C21 UNL     1     173.099 186.731 285.364  1.00  0.00     0.104 A 
HETATM    9  N3  UNL     1     173.796 186.627 284.202  1.00  0.00    -0.238 NA
HETATM   10  C22 UNL     1     173.508 187.368 283.099  1.00  0.00     0.102 A 
ENDROOT
BRANCH   1  11
HETATM   11  C10 UNL     1     171.951 189.030 281.903  1.00  0.00     0.311 C 
BRANCH  11  12
HETATM   12  N2  UNL     1     171.721 190.459 282.192  1.00  0.00     0.087 N 
HETATM   13  H19 UNL     1     171.633 190.587 283.227  1.00  0.00     0.316 HD
BRANCH  12  14
HETATM   14  C9  UNL     1     170.522 190.975 281.499  1.00  0.00     0.270 C 
BRANCH  14  15
HETATM   15  C8  UNL     1     169.222 190.683 282.285  1.00  0.00     0.034 C 
BRANCH  15  16
HETATM   16  C7  UNL     1     169.340 190.829 283.828  1.00  0.00    -0.010 C 
HETATM   17  C4  UNL     1     169.271 192.303 284.318  1.00  0.00     0.035 C 
HETATM   18  C3  UNL     1     168.035 192.584 285.194  1.00  0.00     0.272 C 
HETATM   19  N1  UNL     1     167.914 191.659 286.352  1.00  0.00     0.088 N 
HETATM   20  C5  UNL     1     168.384 190.273 286.083  1.00  0.00     0.272 C 
HETATM   21  C6  UNL     1     168.356 189.925 284.591  1.00  0.00     0.035 C 
BRANCH  19  22
HETATM   22  C2  UNL     1     168.538 192.222 287.570  1.00  0.00     0.268 C 
HETATM   23  C1  UNL     1     168.387 193.743 287.621  1.00  0.00     0.037 C 
ENDBRANCH  19  22
ENDBRANCH  15  16
ENDBRANCH  14  15
ENDBRANCH  12  14
ENDBRANCH  11  12
ENDBRANCH   1  11
BRANCH  10  24
HETATM   24  S1  UNL     1     174.507 187.109 281.623  1.00  0.00    -0.105 SA
BRANCH  24  25
HETATM   25  C23 UNL     1     173.341 185.915 280.868  1.00  0.00     0.119 C 
BRANCH  25  26
HETATM   26  C24 UNL     1     173.269 185.978 279.352  1.00  0.00    -0.049 A 
HETATM   27  C25 UNL     1     172.239 185.372 278.600  1.00  0.00     0.008 A 
HETATM   28  C26 UNL     1     172.209 185.497 277.207  1.00  0.00     0.001 A 
HETATM   29  C27 UNL     1     173.196 186.226 276.544  1.00  0.00     0.000 A 
HETATM   30  C28 UNL     1     174.216 186.838 277.274  1.00  0.00     0.001 A 
HETATM   31  C29 UNL     1     174.251 186.718 278.668  1.00  0.00     0.008 A 
ENDBRANCH  25  26
ENDBRANCH  24  25
ENDBRANCH  10  24
BRANCH   5  32
HETATM   32  O1  UNL     1     170.929 187.290 288.940  1.00  0.00    -0.353 OA
HETATM   33  C16 UNL     1     171.113 188.356 289.865  1.00  0.00     0.210 C 
ENDBRANCH   5  32
BRANCH   7  34
HETATM   34  O3  UNL     1     174.498 185.019 286.365  1.00  0.00    -0.351 OA
HETATM   35  C20 UNL     1     175.830 185.311 286.783  1.00  0.00     0.210 C 
ENDBRANCH   7  34
BRANCH   6  36
HETATM   36  O2  UNL     1     173.081 185.370 288.865  1.00  0.00    -0.351 OA
HETATM   37  C18 UNL     1     173.890 185.797 289.959  1.00  0.00     0.210 C 
ENDBRANCH   6  36
TORSDOF 12
ENDMDL
MODEL 9
REMARK VINA RESULT:      -6.7      5.645      8.228
REMARK  12 active torsions:
REMARK  status: ('A' for Active; 'I' for Inactive)
REMARK    1  A    between atoms: C2_2  and  N1_3 
REMARK    2  A    between atoms: C7_8  and  C8_9 
REMARK    3  A    between atoms: C8_9  and  C9_10 
REMARK    4  A    between atoms: C9_10  and  N2_11 
REMARK    5  A    between atoms: N2_11  and  C10_12 
REMARK    6  A    between atoms: C10_12  and  C11_13 
REMARK    7  A    between atoms: C15_17  and  O1_18 
REMARK    8  A    between atoms: C17_20  and  O2_21 
REMARK    9  A    between atoms: C19_23  and  O3_24 
REMARK   10  A    between atoms: C22_28  and  S1_29 
REMARK   11  A    between atoms: S1_29  and  C23_30 
REMARK   12  A    between atoms: C23_30  and  C24_31 
ROOT
HETATM    1  C11 UNL     1     172.901 188.126 273.688  1.00  0.00     0.006 A 
HETATM    2  C12 UNL     1     172.580 189.448 273.339  1.00  0.00     0.025 A 
HETATM    3  C13 UNL     1     172.532 189.838 271.996  1.00  0.00    -0.001 A 
HETATM    4  C14 UNL     1     172.232 191.154 271.640  1.00  0.00     0.053 A 
HETATM    5  C15 UNL     1     172.146 191.534 270.298  1.00  0.00     0.105 A 
HETATM    6  C17 UNL     1     172.393 190.579 269.273  1.00  0.00     0.137 A 
HETATM    7  C19 UNL     1     172.739 189.247 269.638  1.00  0.00     0.134 A 
HETATM    8  C21 UNL     1     172.788 188.885 270.997  1.00  0.00     0.104 A 
HETATM    9  N3  UNL     1     173.054 187.602 271.356  1.00  0.00    -0.238 NA
HETATM   10  C22 UNL     1     173.109 187.192 272.651  1.00  0.00     0.102 A 
ENDROOT
BRANCH   1  11
HETATM   11  C10 UNL     1     173.096 187.786 275.155  1.00  0.00     0.311 C 
BRANCH  11  12
HETATM   12  N2  UNL     1     171.812 187.502 275.823  1.00  0.00     0.087 N 
HETATM   13  H19 UNL     1     171.169 188.317 275.689  1.00  0.00     0.316 HD
BRANCH  12  14
HETATM   14  C9  UNL     1     171.992 187.212 277.261  1.00  0.00     0.270 C 
BRANCH  14  15
HETATM   15  C8  UNL     1     173.448 186.812 277.599  1.00  0.00     0.034 C 
BRANCH  15  16
HETATM   16  C7  UNL     1     173.683 186.362 279.067  1.00  0.00    -0.010 C 
HETATM   17  C4  UNL     1     174.891 187.068 279.745  1.00  0.00     0.035 C 
HETATM   18  C3  UNL     1     174.476 187.956 280.933  1.00  0.00     0.272 C 
HETATM   19  N1  UNL     1     173.674 187.232 281.955  1.00  0.00     0.088 N 
HETATM   20  C5  UNL     1     172.766 186.192 281.399  1.00  0.00     0.272 C 
HETATM   21  C6  UNL     1     172.412 186.448 279.930  1.00  0.00     0.035 C 
BRANCH  19  22
HETATM   22  C2  UNL     1     174.525 186.694 283.039  1.00  0.00     0.268 C 
HETATM   23  C1  UNL     1     174.675 185.176 282.927  1.00  0.00     0.037 C 
ENDBRANCH  19  22
ENDBRANCH  15  16
ENDBRANCH  14  15
ENDBRANCH  12  14
ENDBRANCH  11  12
ENDBRANCH   1  11
BRANCH  10  24
HETATM   24  S1  UNL     1     173.490 185.462 272.975  1.00  0.00    -0.105 SA
BRANCH  24  25
HETATM   25  C23 UNL     1     175.284 185.648 272.651  1.00  0.00     0.119 C 
BRANCH  25  26
HETATM   26  C24 UNL     1     176.151 185.669 273.898  1.00  0.00    -0.049 A 
HETATM   27  C25 UNL     1     177.390 186.341 273.968  1.00  0.00     0.008 A 
HETATM   28  C26 UNL     1     178.125 186.354 275.158  1.00  0.00     0.001 A 
HETATM   29  C27 UNL     1     177.640 185.705 276.293  1.00  0.00     0.000 A 
HETATM   30  C28 UNL     1     176.412 185.043 276.242  1.00  0.00     0.001 A 
HETATM   31  C29 UNL     1     175.671 185.028 275.055  1.00  0.00     0.008 A 
ENDBRANCH  25  26
ENDBRANCH  24  25
ENDBRANCH  10  24
BRANCH   5  32
HETATM   32  O1  UNL     1     171.798 192.878 270.058  1.00  0.00    -0.353 OA
HETATM   33  C16 UNL     1     171.701 193.918 271.024  1.00  0.00     0.210 C 
ENDBRANCH   5  32
BRANCH   7  34
HETATM   34  O3  UNL     1     173.000 188.283 268.656  1.00  0.00    -0.351 OA
HETATM   35  C20 UNL     1     174.253 188.183 267.982  1.00  0.00     0.210 C 
ENDBRANCH   7  34
BRANCH   6  36
HETATM   36  O2  UNL     1     172.292 190.995 267.929  1.00  0.00    -0.351 OA
HETATM   37  C18 UNL     1     171.137 190.937 267.093  1.00  0.00     0.210 C 
ENDBRANCH   6  36
TORSDOF 12
ENDMDL
