MODEL 1
REMARK VINA RESULT:      -9.5      0.000      0.000
REMARK  9 active torsions:
REMARK  status: ('A' for Active; 'I' for Inactive)
REMARK    1  A    between atoms: C_4  and  S_28 
REMARK    2  A    between atoms: C_5  and  C_7 
REMARK    3  A    between atoms: C_7  and  N_8 
REMARK    4  A    between atoms: N_8  and  C_9 
REMARK    5  A    between atoms: C_9  and  C_10 
REMARK    6  A    between atoms: C_10  and  C_11 
REMARK    7  A    between atoms: N_14  and  C_17 
REMARK    8  A    between atoms: S_28  and  C_35 
REMARK    9  A    between atoms: C_29  and  C_35 
ROOT
HETATM    1  C           1     171.648 189.377 280.986  0.00  0.00    -0.008 A 
HETATM    2  C           1     170.838 189.034 279.914  0.00  0.00     0.130 A 
HETATM    3  N           1     171.031 187.939 279.148  0.00  0.00    -0.253 NA
HETATM    4  C           1     172.081 187.152 279.468  0.00  0.00     0.101 A 
HETATM    5  C           1     172.946 187.411 280.521  0.00  0.00     0.006 A 
HETATM    6  C           1     172.721 188.547 281.291  0.00  0.00     0.025 A 
HETATM    7  C           1     171.403 190.477 281.706  0.00  0.00    -0.025 A 
HETATM    8  C           1     172.153 191.633 281.491  0.00  0.00     0.012 A 
HETATM    9  C           1     171.898 192.779 282.243  0.00  0.00     0.001 A 
HETATM   10  C           1     170.893 192.771 283.209  0.00  0.00     0.000 A 
HETATM   11  C           1     170.142 191.614 283.424  0.00  0.00     0.001 A 
HETATM   12  C           1     170.397 190.468 282.672  0.00  0.00     0.012 A 
ENDROOT
BRANCH   5  13
HETATM   13  C           1     174.091 186.494 280.818  0.00  0.00     0.311 C 
BRANCH  13  14
HETATM   14  N           1     175.064 187.185 281.619  0.00  0.00     0.087 N 
HETATM   15  H           1     175.794 187.564 281.016  0.00  0.00     0.316 HD
BRANCH  14  16
HETATM   16  C           1     175.640 186.230 282.527  0.00  0.00     0.270 C 
BRANCH  16  17
HETATM   17  C           1     174.734 185.008 282.620  0.00  0.00     0.034 C 
BRANCH  17  18
HETATM   18  C           1     174.213 184.871 284.045  0.00  0.00    -0.010 C 
HETATM   19  C           1     175.188 185.546 285.004  0.00  0.00     0.035 C 
HETATM   20  C           1     174.618 185.609 286.420  0.00  0.00     0.273 C 
HETATM   21  N           1     173.313 186.270 286.444  0.00  0.00     0.093 N 
HETATM   22  C           1     172.349 185.582 285.585  0.00  0.00     0.273 C 
HETATM   23  C           1     172.834 185.519 284.138  0.00  0.00     0.035 C 
BRANCH  21  24
HETATM   24  C           1     172.843 186.170 287.799  0.00  0.00     0.223 C 
HETATM   25  C           1     173.889 185.524 288.694  0.00  0.00     0.036 C 
HETATM   26  C           1     173.654 186.109 290.086  0.00  0.00     0.002 C 
HETATM   27  C           1     172.670 187.262 289.906  0.00  0.00     0.002 C 
HETATM   28  C           1     172.656 187.546 288.413  0.00  0.00     0.036 C 
ENDBRANCH  21  24
ENDBRANCH  17  18
ENDBRANCH  16  17
ENDBRANCH  14  16
ENDBRANCH  13  14
ENDBRANCH   5  13
BRANCH   4  29
HETATM   29  S           1     172.377 185.670 278.465  0.00  0.00    -0.105 SA
BRANCH  29  30
HETATM   30  C           1     172.897 186.610 277.002  0.00  0.00     0.119 C 
BRANCH  30  31
HETATM   31  C           1     174.289 186.212 276.620  0.00  0.00    -0.049 A 
HETATM   32  C           1     175.381 186.779 277.276  0.00  0.00     0.008 A 
HETATM   33  C           1     176.678 186.409 276.920  0.00  0.00     0.001 A 
HETATM   34  C           1     176.882 185.471 275.907  0.00  0.00     0.000 A 
HETATM   35  C           1     175.790 184.904 275.251  0.00  0.00     0.001 A 
HETATM   36  C           1     174.493 185.275 275.607  0.00  0.00     0.008 A 
ENDBRANCH  30  31
ENDBRANCH  29  30
ENDBRANCH   4  29
TORSDOF 9
ENDMDL
MODEL 2
REMARK VINA RESULT:      -9.0      5.968     10.603
REMARK  9 active torsions:
REMARK  status: ('A' for Active; 'I' for Inactive)
REMARK    1  A    between atoms: C_4  and  S_28 
REMARK    2  A    between atoms: C_5  and  C_7 
REMARK    3  A    between atoms: C_7  and  N_8 
REMARK    4  A    between atoms: N_8  and  C_9 
REMARK    5  A    between atoms: C_9  and  C_10 
REMARK    6  A    between atoms: C_10  and  C_11 
REMARK    7  A    between atoms: N_14  and  C_17 
REMARK    8  A    between atoms: S_28  and  C_35 
REMARK    9  A    between atoms: C_29  and  C_35 
ROOT
HETATM    1  C           1     175.524 185.493 272.374  0.00  0.00    -0.008 A 
HETATM    2  C           1     176.087 184.766 271.336  0.00  0.00     0.130 A 
HETATM    3  N           1     175.529 184.652 270.111  0.00  0.00    -0.253 NA
HETATM    4  C           1     174.356 185.292 269.917  0.00  0.00     0.101 A 
HETATM    5  C           1     173.716 186.043 270.891  0.00  0.00     0.006 A 
HETATM    6  C           1     174.316 186.142 272.143  0.00  0.00     0.025 A 
HETATM    7  C           1     176.126 185.568 273.565  0.00  0.00    -0.025 A 
HETATM    8  C           1     175.681 184.777 274.623  0.00  0.00     0.012 A 
HETATM    9  C           1     176.310 184.855 275.865  0.00  0.00     0.001 A 
HETATM   10  C           1     177.384 185.724 276.050  0.00  0.00     0.000 A 
HETATM   11  C           1     177.831 186.516 274.991  0.00  0.00     0.001 A 
HETATM   12  C           1     177.202 186.437 273.749  0.00  0.00     0.012 A 
ENDROOT
BRANCH   5  13
HETATM   13  C           1     172.416 186.727 270.604  0.00  0.00     0.311 C 
BRANCH  13  14
HETATM   14  N           1     172.574 188.147 270.770  0.00  0.00     0.087 N 
HETATM   15  H           1     173.537 188.354 271.034  0.00  0.00     0.316 HD
BRANCH  14  16
HETATM   16  C           1     171.687 188.564 271.822  0.00  0.00     0.270 C 
BRANCH  16  17
HETATM   17  C           1     172.426 189.507 272.764  0.00  0.00     0.034 C 
BRANCH  17  18
HETATM   18  C           1     172.441 188.913 274.167  0.00  0.00    -0.010 C 
HETATM   19  C           1     171.461 187.746 274.228  0.00  0.00     0.035 C 
HETATM   20  C           1     171.579 186.993 275.552  0.00  0.00     0.273 C 
HETATM   21  N           1     172.950 186.542 275.792  0.00  0.00     0.093 N 
HETATM   22  C           1     173.887 187.666 275.812  0.00  0.00     0.273 C 
HETATM   23  C           1     173.855 188.444 274.498  0.00  0.00     0.035 C 
BRANCH  21  24
HETATM   24  C           1     172.949 185.950 277.103  0.00  0.00     0.223 C 
HETATM   25  C           1     173.976 186.619 278.004  0.00  0.00     0.036 C 
HETATM   26  C           1     173.423 186.485 279.422  0.00  0.00     0.002 C 
HETATM   27  C           1     171.986 185.990 279.278  0.00  0.00     0.002 C 
HETATM   28  C           1     171.634 186.208 277.816  0.00  0.00     0.036 C 
ENDBRANCH  21  24
ENDBRANCH  17  18
ENDBRANCH  16  17
ENDBRANCH  14  16
ENDBRANCH  13  14
ENDBRANCH   5  13
BRANCH   4  29
HETATM   29  S           1     173.571 185.165 268.285  0.00  0.00    -0.105 SA
BRANCH  29  30
HETATM   30  C           1     174.694 186.363 267.511  0.00  0.00     0.119 C 
BRANCH  30  31
HETATM   31  C           1     174.061 187.720 267.521  0.00  0.00    -0.049 A 
HETATM   32  C           1     174.758 188.811 268.036  0.00  0.00     0.008 A 
HETATM   33  C           1     174.168 190.076 268.045  0.00  0.00     0.001 A 
HETATM   34  C           1     172.879 190.247 267.538  0.00  0.00     0.000 A 
HETATM   35  C           1     172.182 189.155 267.022  0.00  0.00     0.001 A 
HETATM   36  C           1     172.772 187.890 267.014  0.00  0.00     0.008 A 
ENDBRANCH  30  31
ENDBRANCH  29  30
ENDBRANCH   4  29
TORSDOF 9
ENDMDL
MODEL 3
REMARK VINA RESULT:      -8.9      2.335      9.252
REMARK  9 active torsions:
REMARK  status: ('A' for Active; 'I' for Inactive)
REMARK    1  A    between atoms: C_4  and  S_28 
REMARK    2  A    between atoms: C_5  and  C_7 
REMARK    3  A    between atoms: C_7  and  N_8 
REMARK    4  A    between atoms: N_8  and  C_9 
REMARK    5  A    between atoms: C_9  and  C_10 
REMARK    6  A    between atoms: C_10  and  C_11 
REMARK    7  A    between atoms: N_14  and  C_17 
REMARK    8  A    between atoms: S_28  and  C_35 
REMARK    9  A    between atoms: C_29  and  C_35 
ROOT
HETATM    1  C           1     172.678 189.385 282.505  0.00  0.00    -0.008 A 
HETATM    2  C           1     173.619 189.247 283.514  0.00  0.00     0.130 A 
HETATM    3  N           1     174.556 188.275 283.539  0.00  0.00    -0.253 NA
HETATM    4  C           1     174.552 187.402 282.508  0.00  0.00     0.101 A 
HETATM    5  C           1     173.653 187.457 281.454  0.00  0.00     0.006 A 
HETATM    6  C           1     172.699 188.470 281.457  0.00  0.00     0.025 A 
HETATM    7  C           1     171.775 190.369 282.538  0.00  0.00    -0.025 A 
HETATM    8  C           1     170.469 190.105 282.952  0.00  0.00     0.012 A 
HETATM    9  C           1     169.528 191.133 282.986  0.00  0.00     0.001 A 
HETATM   10  C           1     169.890 192.425 282.608  0.00  0.00     0.000 A 
HETATM   11  C           1     171.196 192.690 282.194  0.00  0.00     0.001 A 
HETATM   12  C           1     172.138 191.662 282.160  0.00  0.00     0.012 A 
ENDROOT
BRANCH   5  13
HETATM   13  C           1     173.708 186.455 280.344  0.00  0.00     0.311 C 
BRANCH  13  14
HETATM   14  N           1     172.376 186.012 280.031  0.00  0.00     0.087 N 
HETATM   15  H           1     172.139 185.207 280.611  0.00  0.00     0.316 HD
BRANCH  14  16
HETATM   16  C           1     172.359 185.627 278.646  0.00  0.00     0.270 C 
BRANCH  16  17
HETATM   17  C           1     173.577 186.211 277.941  0.00  0.00     0.034 C 
BRANCH  17  18
HETATM   18  C           1     173.648 185.670 276.519  0.00  0.00    -0.010 C 
HETATM   19  C           1     173.050 186.696 275.561  0.00  0.00     0.035 C 
HETATM   20  C           1     173.272 186.290 274.105  0.00  0.00     0.273 C 
HETATM   21  N           1     174.690 186.069 273.821  0.00  0.00     0.093 N 
HETATM   22  C           1     175.254 185.031 274.685  0.00  0.00     0.273 C 
HETATM   23  C           1     175.105 185.390 276.162  0.00  0.00     0.035 C 
BRANCH  21  24
HETATM   24  C           1     174.754 185.594 272.466  0.00  0.00     0.223 C 
HETATM   25  C           1     176.191 185.320 272.051  0.00  0.00     0.036 C 
HETATM   26  C           1     176.111 184.206 271.008  0.00  0.00     0.002 C 
HETATM   27  C           1     174.676 183.686 271.045  0.00  0.00     0.002 C 
HETATM   28  C           1     174.085 184.237 272.333  0.00  0.00     0.036 C 
ENDBRANCH  21  24
ENDBRANCH  17  18
ENDBRANCH  16  17
ENDBRANCH  14  16
ENDBRANCH  13  14
ENDBRANCH   5  13
BRANCH   4  29
HETATM   29  S           1     175.795 186.080 282.502  0.00  0.00    -0.105 SA
BRANCH  29  30
HETATM   30  C           1     174.576 184.760 282.762  0.00  0.00     0.119 C 
BRANCH  30  31
HETATM   31  C           1     174.046 184.837 284.160  0.00  0.00    -0.049 A 
HETATM   32  C           1     174.894 184.601 285.241  0.00  0.00     0.008 A 
HETATM   33  C           1     174.401 184.672 286.544  0.00  0.00     0.001 A 
HETATM   34  C           1     173.057 184.979 286.765  0.00  0.00     0.000 A 
HETATM   35  C           1     172.209 185.215 285.684  0.00  0.00     0.001 A 
HETATM   36  C           1     172.703 185.143 284.380  0.00  0.00     0.008 A 
ENDBRANCH  30  31
ENDBRANCH  29  30
ENDBRANCH   4  29
TORSDOF 9
ENDMDL
MODEL 4
REMARK VINA RESULT:      -8.7      8.852     12.957
REMARK  9 active torsions:
REMARK  status: ('A' for Active; 'I' for Inactive)
REMARK    1  A    between atoms: C_4  and  S_28 
REMARK    2  A    between atoms: C_5  and  C_7 
REMARK    3  A    between atoms: C_7  and  N_8 
REMARK    4  A    between atoms: N_8  and  C_9 
REMARK    5  A    between atoms: C_9  and  C_10 
REMARK    6  A    between atoms: C_10  and  C_11 
REMARK    7  A    between atoms: N_14  and  C_17 
REMARK    8  A    between atoms: S_28  and  C_35 
REMARK    9  A    between atoms: C_29  and  C_35 
ROOT
HETATM    1  C           1     174.756 185.495 273.407  0.00  0.00    -0.008 A 
HETATM    2  C           1     173.620 186.268 273.592  0.00  0.00     0.130 A 
HETATM    3  N           1     172.541 186.222 272.781  0.00  0.00    -0.253 NA
HETATM    4  C           1     172.603 185.365 271.738  0.00  0.00     0.101 A 
HETATM    5  C           1     173.694 184.552 271.471  0.00  0.00     0.006 A 
HETATM    6  C           1     174.790 184.622 272.325  0.00  0.00     0.025 A 
HETATM    7  C           1     175.793 185.587 274.247  0.00  0.00    -0.025 A 
HETATM    8  C           1     176.918 186.328 273.888  0.00  0.00     0.012 A 
HETATM    9  C           1     177.999 186.423 274.764  0.00  0.00     0.001 A 
HETATM   10  C           1     177.954 185.780 276.000  0.00  0.00     0.000 A 
HETATM   11  C           1     176.828 185.038 276.360  0.00  0.00     0.001 A 
HETATM   12  C           1     175.747 184.943 275.484  0.00  0.00     0.012 A 
ENDROOT
BRANCH   5  13
HETATM   13  C           1     173.693 183.626 270.296  0.00  0.00     0.311 C 
BRANCH  13  14
HETATM   14  N           1     174.823 183.914 269.455  0.00  0.00     0.087 N 
HETATM   15  H           1     175.589 184.272 270.025  0.00  0.00     0.316 HD
BRANCH  14  16
HETATM   16  C           1     174.419 184.918 268.509  0.00  0.00     0.270 C 
BRANCH  16  17
HETATM   17  C           1     175.440 186.049 268.503  0.00  0.00     0.034 C 
BRANCH  17  18
HETATM   18  C           1     174.754 187.354 268.888  0.00  0.00    -0.010 C 
HETATM   19  C           1     175.020 187.645 270.362  0.00  0.00     0.035 C 
HETATM   20  C           1     174.521 189.035 270.751  0.00  0.00     0.273 C 
HETATM   21  N           1     175.102 190.071 269.897  0.00  0.00     0.093 N 
HETATM   22  C           1     174.786 189.842 268.486  0.00  0.00     0.273 C 
HETATM   23  C           1     175.295 188.481 268.013  0.00  0.00     0.035 C 
BRANCH  21  24
HETATM   24  C           1     174.478 191.306 270.290  0.00  0.00     0.223 C 
HETATM   25  C           1     173.397 191.063 271.332  0.00  0.00     0.036 C 
HETATM   26  C           1     173.343 192.338 272.171  0.00  0.00     0.002 C 
HETATM   27  C           1     174.562 193.166 271.771  0.00  0.00     0.002 C 
HETATM   28  C           1     175.464 192.207 271.011  0.00  0.00     0.036 C 
ENDBRANCH  21  24
ENDBRANCH  17  18
ENDBRANCH  16  17
ENDBRANCH  14  16
ENDBRANCH  13  14
ENDBRANCH   5  13
BRANCH   4  29
HETATM   29  S           1     171.175 185.272 270.622  0.00  0.00    -0.105 SA
BRANCH  29  30
HETATM   30  C           1     170.964 187.072 270.536  0.00  0.00     0.119 C 
BRANCH  30  31
HETATM   31  C           1     171.196 187.536 269.131  0.00  0.00    -0.049 A 
HETATM   32  C           1     171.374 186.605 268.109  0.00  0.00     0.008 A 
HETATM   33  C           1     171.590 187.037 266.800  0.00  0.00     0.001 A 
HETATM   34  C           1     171.628 188.403 266.515  0.00  0.00     0.000 A 
HETATM   35  C           1     171.450 189.334 267.536  0.00  0.00     0.001 A 
HETATM   36  C           1     171.234 188.901 268.846  0.00  0.00     0.008 A 
ENDBRANCH  30  31
ENDBRANCH  29  30
ENDBRANCH   4  29
TORSDOF 9
ENDMDL
MODEL 5
REMARK VINA RESULT:      -8.6      9.255     16.205
REMARK  9 active torsions:
REMARK  status: ('A' for Active; 'I' for Inactive)
REMARK    1  A    between atoms: C_4  and  S_28 
REMARK    2  A    between atoms: C_5  and  C_7 
REMARK    3  A    between atoms: C_7  and  N_8 
REMARK    4  A    between atoms: N_8  and  C_9 
REMARK    5  A    between atoms: C_9  and  C_10 
REMARK    6  A    between atoms: C_10  and  C_11 
REMARK    7  A    between atoms: N_14  and  C_17 
REMARK    8  A    between atoms: S_28  and  C_35 
REMARK    9  A    between atoms: C_29  and  C_35 
ROOT
HETATM    1  C           1     175.575 185.564 272.323  0.00  0.00    -0.008 A 
HETATM    2  C           1     174.460 186.315 271.986  0.00  0.00     0.130 A 
HETATM    3  N           1     173.879 186.291 270.767  0.00  0.00    -0.253 NA
HETATM    4  C           1     174.439 185.480 269.844  0.00  0.00     0.101 A 
HETATM    5  C           1     175.554 184.691 270.085  0.00  0.00     0.006 A 
HETATM    6  C           1     176.130 184.737 271.351  0.00  0.00     0.025 A 
HETATM    7  C           1     176.104 185.632 273.548  0.00  0.00    -0.025 A 
HETATM    8  C           1     177.247 186.400 273.774  0.00  0.00     0.012 A 
HETATM    9  C           1     177.798 186.470 275.052  0.00  0.00     0.001 A 
HETATM   10  C           1     177.207 185.775 276.106  0.00  0.00     0.000 A 
HETATM   11  C           1     176.064 185.007 275.882  0.00  0.00     0.001 A 
HETATM   12  C           1     175.513 184.937 274.603  0.00  0.00     0.012 A 
ENDROOT
BRANCH   5  13
HETATM   13  C           1     176.121 183.814 269.014  0.00  0.00     0.311 C 
BRANCH  13  14
HETATM   14  N           1     177.340 184.391 268.516  0.00  0.00     0.087 N 
HETATM   15  H           1     177.406 185.363 268.820  0.00  0.00     0.316 HD
BRANCH  14  16
HETATM   16  C           1     177.293 184.340 267.080  0.00  0.00     0.270 C 
BRANCH  16  17
HETATM   17  C           1     176.738 182.992 266.638  0.00  0.00     0.034 C 
BRANCH  17  18
HETATM   18  C           1     175.867 183.182 265.403  0.00  0.00    -0.010 C 
HETATM   19  C           1     174.468 182.645 265.687  0.00  0.00     0.035 C 
HETATM   20  C           1     173.502 182.986 264.554  0.00  0.00     0.273 C 
HETATM   21  N           1     173.471 184.425 264.293  0.00  0.00     0.093 N 
HETATM   22  C           1     174.797 184.936 263.943  0.00  0.00     0.273 C 
HETATM   23  C           1     175.810 184.666 265.054  0.00  0.00     0.035 C 
BRANCH  21  24
HETATM   24  C           1     172.618 184.602 263.148  0.00  0.00     0.223 C 
HETATM   25  C           1     171.457 185.531 263.472  0.00  0.00     0.036 C 
HETATM   26  C           1     171.097 186.210 262.152  0.00  0.00     0.002 C 
HETATM   27  C           1     172.216 185.866 261.172  0.00  0.00     0.002 C 
HETATM   28  C           1     173.348 185.329 262.033  0.00  0.00     0.036 C 
ENDBRANCH  21  24
ENDBRANCH  17  18
ENDBRANCH  16  17
ENDBRANCH  14  16
ENDBRANCH  13  14
ENDBRANCH   5  13
BRANCH   4  29
HETATM   29  S           1     173.690 185.417 268.192  0.00  0.00    -0.105 SA
BRANCH  29  30
HETATM   30  C           1     174.529 186.920 267.616  0.00  0.00     0.119 C 
BRANCH  30  31
HETATM   31  C           1     173.520 188.005 267.403  0.00  0.00    -0.049 A 
HETATM   32  C           1     172.336 187.731 266.720  0.00  0.00     0.008 A 
HETATM   33  C           1     171.395 188.742 266.520  0.00  0.00     0.001 A 
HETATM   34  C           1     171.641 190.028 267.004  0.00  0.00     0.000 A 
HETATM   35  C           1     172.825 190.302 267.687  0.00  0.00     0.001 A 
HETATM   36  C           1     173.766 189.290 267.886  0.00  0.00     0.008 A 
ENDBRANCH  30  31
ENDBRANCH  29  30
ENDBRANCH   4  29
TORSDOF 9
ENDMDL
MODEL 6
REMARK VINA RESULT:      -8.5      9.529     16.719
REMARK  9 active torsions:
REMARK  status: ('A' for Active; 'I' for Inactive)
REMARK    1  A    between atoms: C_4  and  S_28 
REMARK    2  A    between atoms: C_5  and  C_7 
REMARK    3  A    between atoms: C_7  and  N_8 
REMARK    4  A    between atoms: N_8  and  C_9 
REMARK    5  A    between atoms: C_9  and  C_10 
REMARK    6  A    between atoms: C_10  and  C_11 
REMARK    7  A    between atoms: N_14  and  C_17 
REMARK    8  A    between atoms: S_28  and  C_35 
REMARK    9  A    between atoms: C_29  and  C_35 
ROOT
HETATM    1  C           1     175.420 185.653 272.559  0.00  0.00    -0.008 A 
HETATM    2  C           1     174.362 186.514 272.316  0.00  0.00     0.130 A 
HETATM    3  N           1     173.668 186.544 271.157  0.00  0.00    -0.253 NA
HETATM    4  C           1     174.051 185.672 270.199  0.00  0.00     0.101 A 
HETATM    5  C           1     175.096 184.773 270.348  0.00  0.00     0.006 A 
HETATM    6  C           1     175.791 184.767 271.553  0.00  0.00     0.025 A 
HETATM    7  C           1     176.068 185.673 273.728  0.00  0.00    -0.025 A 
HETATM    8  C           1     177.300 186.318 273.832  0.00  0.00     0.012 A 
HETATM    9  C           1     177.974 186.339 275.053  0.00  0.00     0.001 A 
HETATM   10  C           1     177.418 185.716 276.169  0.00  0.00     0.000 A 
HETATM   11  C           1     176.184 185.071 276.065  0.00  0.00     0.001 A 
HETATM   12  C           1     175.510 185.050 274.845  0.00  0.00     0.012 A 
ENDROOT
BRANCH   5  13
HETATM   13  C           1     175.465 183.834 269.242  0.00  0.00     0.311 C 
BRANCH  13  14
HETATM   14  N           1     176.886 183.882 269.025  0.00  0.00     0.087 N 
HETATM   15  H           1     177.343 184.269 269.851  0.00  0.00     0.316 HD
BRANCH  14  16
HETATM   16  C           1     177.127 184.740 267.897  0.00  0.00     0.270 C 
BRANCH  16  17
HETATM   17  C           1     176.230 184.321 266.739  0.00  0.00     0.034 C 
BRANCH  17  18
HETATM   18  C           1     177.092 183.873 265.566  0.00  0.00    -0.010 C 
HETATM   19  C           1     177.349 182.374 265.676  0.00  0.00     0.035 C 
HETATM   20  C           1     178.043 181.838 264.425  0.00  0.00     0.273 C 
HETATM   21  N           1     177.284 182.154 263.214  0.00  0.00     0.093 N 
HETATM   22  C           1     177.099 183.598 263.061  0.00  0.00     0.273 C 
HETATM   23  C           1     176.371 184.199 264.262  0.00  0.00     0.035 C 
BRANCH  21  24
HETATM   24  C           1     178.086 181.696 262.112  0.00  0.00     0.223 C 
HETATM   25  C           1     178.622 182.868 261.303  0.00  0.00     0.036 C 
HETATM   26  C           1     179.942 182.383 260.707  0.00  0.00     0.002 C 
HETATM   27  C           1     180.265 181.059 261.396  0.00  0.00     0.002 C 
HETATM   28  C           1     179.345 181.005 262.606  0.00  0.00     0.036 C 
ENDBRANCH  21  24
ENDBRANCH  17  18
ENDBRANCH  16  17
ENDBRANCH  14  16
ENDBRANCH  13  14
ENDBRANCH   5  13
BRANCH   4  29
HETATM   29  S           1     173.146 185.678 268.626  0.00  0.00    -0.105 SA
BRANCH  29  30
HETATM   30  C           1     174.089 187.070 267.943  0.00  0.00     0.119 C 
BRANCH  30  31
HETATM   31  C           1     173.150 188.179 267.580  0.00  0.00    -0.049 A 
HETATM   32  C           1     172.006 187.907 266.831  0.00  0.00     0.008 A 
HETATM   33  C           1     171.131 188.939 266.492  0.00  0.00     0.001 A 
HETATM   34  C           1     171.403 190.245 266.903  0.00  0.00     0.000 A 
HETATM   35  C           1     172.547 190.518 267.651  0.00  0.00     0.001 A 
HETATM   36  C           1     173.422 189.484 267.990  0.00  0.00     0.008 A 
ENDBRANCH  30  31
ENDBRANCH  29  30
ENDBRANCH   4  29
TORSDOF 9
ENDMDL
MODEL 7
REMARK VINA RESULT:      -8.5      8.711     14.376
REMARK  9 active torsions:
REMARK  status: ('A' for Active; 'I' for Inactive)
REMARK    1  A    between atoms: C_4  and  S_28 
REMARK    2  A    between atoms: C_5  and  C_7 
REMARK    3  A    between atoms: C_7  and  N_8 
REMARK    4  A    between atoms: N_8  and  C_9 
REMARK    5  A    between atoms: C_9  and  C_10 
REMARK    6  A    between atoms: C_10  and  C_11 
REMARK    7  A    between atoms: N_14  and  C_17 
REMARK    8  A    between atoms: S_28  and  C_35 
REMARK    9  A    between atoms: C_29  and  C_35 
ROOT
HETATM    1  C           1     176.009 183.849 268.354  0.00  0.00    -0.008 A 
HETATM    2  C           1     176.658 183.804 269.578  0.00  0.00     0.130 A 
HETATM    3  N           1     176.345 184.599 270.624  0.00  0.00    -0.253 NA
HETATM    4  C           1     175.337 185.480 270.435  0.00  0.00     0.101 A 
HETATM    5  C           1     174.629 185.599 269.249  0.00  0.00     0.006 A 
HETATM    6  C           1     174.976 184.765 268.190  0.00  0.00     0.025 A 
HETATM    7  C           1     176.367 183.033 267.357  0.00  0.00    -0.025 A 
HETATM    8  C           1     177.167 183.510 266.319  0.00  0.00     0.012 A 
HETATM    9  C           1     177.540 182.658 265.279  0.00  0.00     0.001 A 
HETATM   10  C           1     177.115 181.331 265.278  0.00  0.00     0.000 A 
HETATM   11  C           1     176.315 180.853 266.317  0.00  0.00     0.001 A 
HETATM   12  C           1     175.942 181.704 267.356  0.00  0.00     0.012 A 
ENDROOT
BRANCH   5  13
HETATM   13  C           1     173.523 186.598 269.111  0.00  0.00     0.311 C 
BRANCH  13  14
HETATM   14  N           1     173.291 186.869 267.718  0.00  0.00     0.087 N 
HETATM   15  H           1     174.105 186.580 267.175  0.00  0.00     0.316 HD
BRANCH  14  16
HETATM   16  C           1     173.097 188.286 267.575  0.00  0.00     0.270 C 
BRANCH  16  17
HETATM   17  C           1     174.450 188.987 267.592  0.00  0.00     0.034 C 
BRANCH  17  18
HETATM   18  C           1     174.381 190.200 268.511  0.00  0.00    -0.010 C 
HETATM   19  C           1     172.932 190.431 268.930  0.00  0.00     0.035 C 
HETATM   20  C           1     172.831 191.513 270.004  0.00  0.00     0.273 C 
HETATM   21  N           1     173.670 191.198 271.161  0.00  0.00     0.093 N 
HETATM   22  C           1     175.075 191.051 270.779  0.00  0.00     0.273 C 
HETATM   23  C           1     175.259 189.953 269.734  0.00  0.00     0.035 C 
BRANCH  21  24
HETATM   24  C           1     173.572 192.331 272.042  0.00  0.00     0.223 C 
HETATM   25  C           1     173.476 191.886 273.493  0.00  0.00     0.036 C 
HETATM   26  C           1     174.100 193.017 274.309  0.00  0.00     0.002 C 
HETATM   27  C           1     174.775 193.949 273.306  0.00  0.00     0.002 C 
HETATM   28  C           1     174.846 193.156 272.011  0.00  0.00     0.036 C 
ENDBRANCH  21  24
ENDBRANCH  17  18
ENDBRANCH  16  17
ENDBRANCH  14  16
ENDBRANCH  13  14
ENDBRANCH   5  13
BRANCH   4  29
HETATM   29  S           1     174.883 186.569 271.814  0.00  0.00    -0.105 SA
BRANCH  29  30
HETATM   30  C           1     174.830 185.220 273.027  0.00  0.00     0.119 C 
BRANCH  30  31
HETATM   31  C           1     175.856 185.464 274.091  0.00  0.00    -0.049 A 
HETATM   32  C           1     177.037 186.137 273.779  0.00  0.00     0.008 A 
HETATM   33  C           1     177.993 186.364 274.770  0.00  0.00     0.001 A 
HETATM   34  C           1     177.767 185.918 276.072  0.00  0.00     0.000 A 
HETATM   35  C           1     176.586 185.245 276.384  0.00  0.00     0.001 A 
HETATM   36  C           1     175.630 185.018 275.393  0.00  0.00     0.008 A 
ENDBRANCH  30  31
ENDBRANCH  29  30
ENDBRANCH   4  29
TORSDOF 9
ENDMDL
MODEL 8
REMARK VINA RESULT:      -8.4      4.367      7.097
REMARK  9 active torsions:
REMARK  status: ('A' for Active; 'I' for Inactive)
REMARK    1  A    between atoms: C_4  and  S_28 
REMARK    2  A    between atoms: C_5  and  C_7 
REMARK    3  A    between atoms: C_7  and  N_8 
REMARK    4  A    between atoms: N_8  and  C_9 
REMARK    5  A    between atoms: C_9  and  C_10 
REMARK    6  A    between atoms: C_10  and  C_11 
REMARK    7  A    between atoms: N_14  and  C_17 
REMARK    8  A    between atoms: S_28  and  C_35 
REMARK    9  A    between atoms: C_29  and  C_35 
ROOT
HETATM    1  C           1     173.172 189.897 272.191  0.00  0.00    -0.008 A 
HETATM    2  C           1     173.786 189.109 271.229  0.00  0.00     0.130 A 
HETATM    3  N           1     173.940 187.772 271.340  0.00  0.00    -0.253 NA
HETATM    4  C           1     173.459 187.198 272.465  0.00  0.00     0.101 A 
HETATM    5  C           1     172.831 187.901 273.482  0.00  0.00     0.006 A 
HETATM    6  C           1     172.687 189.277 273.337  0.00  0.00     0.025 A 
HETATM    7  C           1     173.050 191.217 272.021  0.00  0.00    -0.025 A 
HETATM    8  C           1     173.926 192.088 272.670  0.00  0.00     0.012 A 
HETATM    9  C           1     173.798 193.465 272.492  0.00  0.00     0.001 A 
HETATM   10  C           1     172.797 193.972 271.666  0.00  0.00     0.000 A 
HETATM   11  C           1     171.921 193.102 271.015  0.00  0.00     0.001 A 
HETATM   12  C           1     172.049 191.725 271.193  0.00  0.00     0.012 A 
ENDROOT
BRANCH   5  13
HETATM   13  C           1     172.322 187.198 274.701  0.00  0.00     0.311 C 
BRANCH  13  14
HETATM   14  N           1     171.831 188.165 275.644  0.00  0.00     0.087 N 
HETATM   15  H           1     172.455 188.972 275.660  0.00  0.00     0.316 HD
BRANCH  14  16
HETATM   16  C           1     171.816 187.544 276.940  0.00  0.00     0.270 C 
BRANCH  16  17
HETATM   17  C           1     172.745 186.336 276.935  0.00  0.00     0.034 C 
BRANCH  17  18
HETATM   18  C           1     173.198 186.038 278.358  0.00  0.00    -0.010 C 
HETATM   19  C           1     174.338 186.980 278.730  0.00  0.00     0.035 C 
HETATM   20  C           1     174.698 186.856 280.210  0.00  0.00     0.273 C 
HETATM   21  N           1     173.532 187.078 281.065  0.00  0.00     0.093 N 
HETATM   22  C           1     172.461 186.127 280.766  0.00  0.00     0.273 C 
HETATM   23  C           1     172.018 186.223 279.308  0.00  0.00     0.035 C 
BRANCH  21  24
HETATM   24  C           1     173.974 186.831 282.411  0.00  0.00     0.223 C 
HETATM   25  C           1     172.857 186.231 283.251  0.00  0.00     0.036 C 
HETATM   26  C           1     173.554 185.371 284.304  0.00  0.00     0.002 C 
HETATM   27  C           1     175.019 185.281 283.884  0.00  0.00     0.002 C 
HETATM   28  C           1     175.051 185.760 282.442  0.00  0.00     0.036 C 
ENDBRANCH  21  24
ENDBRANCH  17  18
ENDBRANCH  16  17
ENDBRANCH  14  16
ENDBRANCH  13  14
ENDBRANCH   5  13
BRANCH   4  29
HETATM   29  S           1     173.646 185.403 272.656  0.00  0.00    -0.105 SA
BRANCH  29  30
HETATM   30  C           1     175.447 185.439 272.436  0.00  0.00     0.119 C 
BRANCH  30  31
HETATM   31  C           1     176.112 185.554 273.773  0.00  0.00    -0.049 A 
HETATM   32  C           1     177.314 186.249 273.896  0.00  0.00     0.008 A 
HETATM   33  C           1     177.934 186.356 275.141  0.00  0.00     0.001 A 
HETATM   34  C           1     177.350 185.767 276.264  0.00  0.00     0.000 A 
HETATM   35  C           1     176.148 185.072 276.140  0.00  0.00     0.001 A 
HETATM   36  C           1     175.528 184.964 274.894  0.00  0.00     0.008 A 
ENDBRANCH  30  31
ENDBRANCH  29  30
ENDBRANCH   4  29
TORSDOF 9
ENDMDL
MODEL 9
REMARK VINA RESULT:      -8.2      9.196     15.145
REMARK  9 active torsions:
REMARK  status: ('A' for Active; 'I' for Inactive)
REMARK    1  A    between atoms: C_4  and  S_28 
REMARK    2  A    between atoms: C_5  and  C_7 
REMARK    3  A    between atoms: C_7  and  N_8 
REMARK    4  A    between atoms: N_8  and  C_9 
REMARK    5  A    between atoms: C_9  and  C_10 
REMARK    6  A    between atoms: C_10  and  C_11 
REMARK    7  A    between atoms: N_14  and  C_17 
REMARK    8  A    between atoms: S_28  and  C_35 
REMARK    9  A    between atoms: C_29  and  C_35 
ROOT
HETATM    1  C           1     175.928 183.876 267.434  0.00  0.00    -0.008 A 
HETATM    2  C           1     176.781 184.419 268.383  0.00  0.00     0.130 A 
HETATM    3  N           1     176.464 184.548 269.690  0.00  0.00    -0.253 NA
HETATM    4  C           1     175.240 184.115 270.063  0.00  0.00     0.101 A 
HETATM    5  C           1     174.319 183.559 269.188  0.00  0.00     0.006 A 
HETATM    6  C           1     174.675 183.439 267.848  0.00  0.00     0.025 A 
HETATM    7  C           1     176.301 183.776 266.154  0.00  0.00    -0.025 A 
HETATM    8  C           1     175.843 184.705 265.219  0.00  0.00     0.012 A 
HETATM    9  C           1     176.233 184.600 263.884  0.00  0.00     0.001 A 
HETATM   10  C           1     177.080 183.568 263.483  0.00  0.00     0.000 A 
HETATM   11  C           1     177.539 182.639 264.418  0.00  0.00     0.001 A 
HETATM   12  C           1     177.150 182.744 265.753  0.00  0.00     0.012 A 
ENDROOT
BRANCH   5  13
HETATM   13  C           1     172.980 183.099 269.672  0.00  0.00     0.311 C 
BRANCH  13  14
HETATM   14  N           1     171.976 183.431 268.697  0.00  0.00     0.087 N 
HETATM   15  H           1     172.389 183.412 267.764  0.00  0.00     0.316 HD
BRANCH  14  16
HETATM   16  C           1     171.508 184.759 268.987  0.00  0.00     0.270 C 
BRANCH  16  17
HETATM   17  C           1     171.711 185.647 267.767  0.00  0.00     0.034 C 
BRANCH  17  18
HETATM   18  C           1     172.029 187.066 268.220  0.00  0.00    -0.010 C 
HETATM   19  C           1     172.970 187.012 269.419  0.00  0.00     0.035 C 
HETATM   20  C           1     173.475 188.405 269.791  0.00  0.00     0.273 C 
HETATM   21  N           1     174.113 189.065 268.652  0.00  0.00     0.093 N 
HETATM   22  C           1     173.192 189.191 267.522  0.00  0.00     0.273 C 
HETATM   23  C           1     172.677 187.827 267.066  0.00  0.00     0.035 C 
BRANCH  21  24
HETATM   24  C           1     174.444 190.392 269.097  0.00  0.00     0.223 C 
HETATM   25  C           1     173.286 191.017 269.858  0.00  0.00     0.036 C 
HETATM   26  C           1     173.925 191.984 270.853  0.00  0.00     0.002 C 
HETATM   27  C           1     175.424 191.697 270.829  0.00  0.00     0.002 C 
HETATM   28  C           1     175.562 190.357 270.125  0.00  0.00     0.036 C 
ENDBRANCH  21  24
ENDBRANCH  17  18
ENDBRANCH  16  17
ENDBRANCH  14  16
ENDBRANCH  13  14
ENDBRANCH   5  13
BRANCH   4  29
HETATM   29  S           1     174.773 184.270 271.809  0.00  0.00    -0.105 SA
BRANCH  29  30
HETATM   30  C           1     175.948 185.615 272.135  0.00  0.00     0.119 C 
BRANCH  30  31
HETATM   31  C           1     176.288 185.639 273.593  0.00  0.00    -0.049 A 
HETATM   32  C           1     175.432 185.045 274.519  0.00  0.00     0.008 A 
HETATM   33  C           1     175.749 185.067 275.878  0.00  0.00     0.001 A 
HETATM   34  C           1     176.924 185.685 276.309  0.00  0.00     0.000 A 
HETATM   35  C           1     177.780 186.279 275.383  0.00  0.00     0.001 A 
HETATM   36  C           1     177.462 186.257 274.024  0.00  0.00     0.008 A 
ENDBRANCH  30  31
ENDBRANCH  29  30
ENDBRANCH   4  29
TORSDOF 9
ENDMDL
