MODEL 1
REMARK VINA RESULT:      -8.2      0.000      0.000
REMARK  9 active torsions:
REMARK  status: ('A' for Active; 'I' for Inactive)
REMARK    1  A    between atoms: C_4  and  S_22 
REMARK    2  A    between atoms: C_5  and  C_7 
REMARK    3  A    between atoms: C_7  and  N_8 
REMARK    4  A    between atoms: N_8  and  C_9 
REMARK    5  A    between atoms: C_9  and  C_10 
REMARK    6  A    between atoms: C_10  and  C_11 
REMARK    7  A    between atoms: N_14  and  C_17 
REMARK    8  A    between atoms: S_22  and  C_29 
REMARK    9  A    between atoms: C_23  and  C_29 
ROOT
HETATM    1  C           1     174.657 186.474 280.942  0.00  0.00     0.311 C 
ENDROOT
BRANCH   1   2
HETATM    2  C           1     173.584 187.517 280.885  0.00  0.00     0.005 A 
HETATM    3  C           1     172.512 187.389 280.018  0.00  0.00     0.101 A 
HETATM    4  N           1     171.513 188.292 279.917  0.00  0.00    -0.254 NA
HETATM    5  C           1     171.593 189.374 280.723  0.00  0.00     0.118 A 
HETATM    6  C           1     172.624 189.591 281.622  0.00  0.00     0.020 A 
HETATM    7  C           1     173.638 188.642 281.703  0.00  0.00     0.013 A 
BRANCH   3   8
HETATM    8  S           1     172.445 185.920 278.953  0.00  0.00    -0.105 SA
BRANCH   8   9
HETATM    9  C           1     172.815 186.846 277.436  0.00  0.00     0.119 C 
BRANCH   9  10
HETATM   10  C           1     174.110 186.365 276.861  0.00  0.00    -0.049 A 
HETATM   11  C           1     174.109 185.407 275.846  0.00  0.00     0.008 A 
HETATM   12  C           1     175.317 184.959 275.310  0.00  0.00     0.001 A 
HETATM   13  C           1     176.524 185.468 275.788  0.00  0.00     0.000 A 
HETATM   14  C           1     176.524 186.426 276.803  0.00  0.00     0.001 A 
HETATM   15  C           1     175.318 186.874 277.339  0.00  0.00     0.008 A 
ENDBRANCH   9  10
ENDBRANCH   8   9
ENDBRANCH   3   8
ENDBRANCH   1   2
BRANCH   1  16
HETATM   16  N           1     175.746 186.949 281.752  0.00  0.00     0.087 N 
HETATM   17  H           1     176.522 187.223 281.150  0.00  0.00     0.316 HD
BRANCH  16  18
HETATM   18  C           1     176.160 185.867 282.605  0.00  0.00     0.270 C 
BRANCH  18  19
HETATM   19  C           1     174.936 185.087 283.066  0.00  0.00     0.034 C 
BRANCH  19  20
HETATM   20  C           1     174.481 185.609 284.423  0.00  0.00    -0.010 C 
HETATM   21  C           1     172.970 185.817 284.398  0.00  0.00     0.035 C 
HETATM   22  C           1     172.434 186.154 285.788  0.00  0.00     0.273 C 
HETATM   23  N           1     172.810 185.134 286.769  0.00  0.00     0.093 N 
HETATM   24  C           1     174.263 184.982 286.853  0.00  0.00     0.273 C 
HETATM   25  C           1     174.865 184.603 285.502  0.00  0.00     0.035 C 
BRANCH  23  26
HETATM   26  C           1     172.346 185.616 288.041  0.00  0.00     0.223 C 
HETATM   27  C           1     173.442 186.384 288.765  0.00  0.00     0.036 C 
HETATM   28  C           1     172.717 187.411 289.634  0.00  0.00     0.002 C 
HETATM   29  C           1     171.255 187.393 289.190  0.00  0.00     0.002 C 
HETATM   30  C           1     171.251 186.655 287.861  0.00  0.00     0.036 C 
ENDBRANCH  23  26
ENDBRANCH  19  20
ENDBRANCH  18  19
ENDBRANCH  16  18
ENDBRANCH   1  16
TORSDOF 9
ENDMDL
MODEL 2
REMARK VINA RESULT:      -7.8      1.387      2.227
REMARK  9 active torsions:
REMARK  status: ('A' for Active; 'I' for Inactive)
REMARK    1  A    between atoms: C_4  and  S_22 
REMARK    2  A    between atoms: C_5  and  C_7 
REMARK    3  A    between atoms: C_7  and  N_8 
REMARK    4  A    between atoms: N_8  and  C_9 
REMARK    5  A    between atoms: C_9  and  C_10 
REMARK    6  A    between atoms: C_10  and  C_11 
REMARK    7  A    between atoms: N_14  and  C_17 
REMARK    8  A    between atoms: S_22  and  C_29 
REMARK    9  A    between atoms: C_23  and  C_29 
ROOT
HETATM    1  C           1     173.905 185.948 282.992  0.00  0.00     0.311 C 
ENDROOT
BRANCH   1   2
HETATM    2  C           1     173.198 187.215 282.624  0.00  0.00     0.005 A 
HETATM    3  C           1     172.737 187.424 281.335  0.00  0.00     0.101 A 
HETATM    4  N           1     172.092 188.543 280.938  0.00  0.00    -0.254 NA
HETATM    5  C           1     171.901 189.495 281.878  0.00  0.00     0.118 A 
HETATM    6  C           1     172.325 189.379 283.191  0.00  0.00     0.020 A 
HETATM    7  C           1     172.985 188.215 283.569  0.00  0.00     0.013 A 
BRANCH   3   8
HETATM    8  S           1     173.015 186.118 280.106  0.00  0.00    -0.105 SA
BRANCH   8   9
HETATM    9  C           1     174.431 186.961 279.343  0.00  0.00     0.119 C 
BRANCH   9  10
HETATM   10  C           1     174.565 186.521 277.919  0.00  0.00    -0.049 A 
HETATM   11  C           1     175.765 186.726 277.237  0.00  0.00     0.008 A 
HETATM   12  C           1     175.890 186.316 275.909  0.00  0.00     0.001 A 
HETATM   13  C           1     174.817 185.704 275.263  0.00  0.00     0.000 A 
HETATM   14  C           1     173.617 185.501 275.945  0.00  0.00     0.001 A 
HETATM   15  C           1     173.491 185.909 277.272  0.00  0.00     0.008 A 
ENDBRANCH   9  10
ENDBRANCH   8   9
ENDBRANCH   3   8
ENDBRANCH   1   2
BRANCH   1  16
HETATM   16  N           1     175.239 186.254 283.434  0.00  0.00     0.087 N 
HETATM   17  H           1     175.905 185.666 282.936  0.00  0.00     0.316 HD
BRANCH  16  18
HETATM   18  C           1     175.307 185.970 284.843  0.00  0.00     0.270 C 
BRANCH  18  19
HETATM   19  C           1     174.653 184.623 285.122  0.00  0.00     0.034 C 
BRANCH  19  20
HETATM   20  C           1     173.953 184.668 286.474  0.00  0.00    -0.010 C 
HETATM   21  C           1     174.665 185.673 287.373  0.00  0.00     0.035 C 
HETATM   22  C           1     173.892 185.901 288.670  0.00  0.00     0.273 C 
HETATM   23  N           1     172.513 186.317 288.405  0.00  0.00     0.093 N 
HETATM   24  C           1     171.798 185.321 287.605  0.00  0.00     0.273 C 
HETATM   25  C           1     172.496 185.071 286.270  0.00  0.00     0.035 C 
BRANCH  23  26
HETATM   26  C           1     171.868 186.392 289.688  0.00  0.00     0.223 C 
HETATM   27  C           1     172.663 185.637 290.742  0.00  0.00     0.036 C 
HETATM   28  C           1     172.369 186.347 292.064  0.00  0.00     0.002 C 
HETATM   29  C           1     171.640 187.640 291.703  0.00  0.00     0.002 C 
HETATM   30  C           1     171.862 187.819 290.209  0.00  0.00     0.036 C 
ENDBRANCH  23  26
ENDBRANCH  19  20
ENDBRANCH  18  19
ENDBRANCH  16  18
ENDBRANCH   1  16
TORSDOF 9
ENDMDL
MODEL 3
REMARK VINA RESULT:      -7.7      2.332     10.452
REMARK  9 active torsions:
REMARK  status: ('A' for Active; 'I' for Inactive)
REMARK    1  A    between atoms: C_4  and  S_22 
REMARK    2  A    between atoms: C_5  and  C_7 
REMARK    3  A    between atoms: C_7  and  N_8 
REMARK    4  A    between atoms: N_8  and  C_9 
REMARK    5  A    between atoms: C_9  and  C_10 
REMARK    6  A    between atoms: C_10  and  C_11 
REMARK    7  A    between atoms: N_14  and  C_17 
REMARK    8  A    between atoms: S_22  and  C_29 
REMARK    9  A    between atoms: C_23  and  C_29 
ROOT
HETATM    1  C           1     172.600 185.857 283.879  0.00  0.00     0.311 C 
ENDROOT
BRANCH   1   2
HETATM    2  C           1     173.543 185.629 285.019  0.00  0.00     0.005 A 
HETATM    3  C           1     173.325 186.221 286.252  0.00  0.00     0.101 A 
HETATM    4  N           1     174.136 186.056 287.320  0.00  0.00    -0.254 NA
HETATM    5  C           1     175.214 185.261 287.143  0.00  0.00     0.118 A 
HETATM    6  C           1     175.516 184.626 285.950  0.00  0.00     0.020 A 
HETATM    7  C           1     174.662 184.815 284.869  0.00  0.00     0.013 A 
BRANCH   3   8
HETATM    8  S           1     171.865 187.281 286.445  0.00  0.00    -0.105 SA
BRANCH   8   9
HETATM    9  C           1     170.978 186.088 287.486  0.00  0.00     0.119 C 
BRANCH   9  10
HETATM   10  C           1     170.830 186.643 288.868  0.00  0.00    -0.049 A 
HETATM   11  C           1     171.663 187.678 289.295  0.00  0.00     0.008 A 
HETATM   12  C           1     171.525 188.196 290.583  0.00  0.00     0.001 A 
HETATM   13  C           1     170.557 187.680 291.444  0.00  0.00     0.000 A 
HETATM   14  C           1     169.725 186.644 291.016  0.00  0.00     0.001 A 
HETATM   15  C           1     169.862 186.126 289.728  0.00  0.00     0.008 A 
ENDBRANCH   9  10
ENDBRANCH   8   9
ENDBRANCH   3   8
ENDBRANCH   1   2
BRANCH   1  16
HETATM   16  N           1     173.050 185.120 282.729  0.00  0.00     0.087 N 
HETATM   17  H           1     173.830 184.520 282.995  0.00  0.00     0.316 HD
BRANCH  16  18
HETATM   18  C           1     173.492 186.073 281.746  0.00  0.00     0.270 C 
BRANCH  18  19
HETATM   19  C           1     172.307 186.513 280.896  0.00  0.00     0.034 C 
BRANCH  19  20
HETATM   20  C           1     172.758 186.703 279.454  0.00  0.00    -0.010 C 
HETATM   21  C           1     174.275 186.864 279.421  0.00  0.00     0.035 C 
HETATM   22  C           1     174.801 186.864 277.988  0.00  0.00     0.273 C 
HETATM   23  N           1     174.382 185.662 277.264  0.00  0.00     0.093 N 
HETATM   24  C           1     172.925 185.540 277.225  0.00  0.00     0.273 C 
HETATM   25  C           1     172.331 185.493 278.631  0.00  0.00     0.035 C 
BRANCH  23  26
HETATM   26  C           1     174.843 185.833 275.912  0.00  0.00     0.223 C 
HETATM   27  C           1     175.061 187.304 275.593  0.00  0.00     0.036 C 
HETATM   28  C           1     176.169 187.335 274.540  0.00  0.00     0.002 C 
HETATM   29  C           1     176.742 185.920 274.479  0.00  0.00     0.002 C 
HETATM   30  C           1     176.224 185.226 275.729  0.00  0.00     0.036 C 
ENDBRANCH  23  26
ENDBRANCH  19  20
ENDBRANCH  18  19
ENDBRANCH  16  18
ENDBRANCH   1  16
TORSDOF 9
ENDMDL
MODEL 4
REMARK VINA RESULT:      -7.6      1.166      1.773
REMARK  9 active torsions:
REMARK  status: ('A' for Active; 'I' for Inactive)
REMARK    1  A    between atoms: C_4  and  S_22 
REMARK    2  A    between atoms: C_5  and  C_7 
REMARK    3  A    between atoms: C_7  and  N_8 
REMARK    4  A    between atoms: N_8  and  C_9 
REMARK    5  A    between atoms: C_9  and  C_10 
REMARK    6  A    between atoms: C_10  and  C_11 
REMARK    7  A    between atoms: N_14  and  C_17 
REMARK    8  A    between atoms: S_22  and  C_29 
REMARK    9  A    between atoms: C_23  and  C_29 
ROOT
HETATM    1  C           1     173.829 186.215 280.534  0.00  0.00     0.311 C 
ENDROOT
BRANCH   1   2
HETATM    2  C           1     172.772 187.160 280.054  0.00  0.00     0.005 A 
HETATM    3  C           1     172.230 187.037 278.785  0.00  0.00     0.101 A 
HETATM    4  N           1     171.276 187.855 278.291  0.00  0.00    -0.254 NA
HETATM    5  C           1     170.845 188.842 279.107  0.00  0.00     0.118 A 
HETATM    6  C           1     171.325 189.046 280.390  0.00  0.00     0.020 A 
HETATM    7  C           1     172.307 188.186 280.870  0.00  0.00     0.013 A 
BRANCH   3   8
HETATM    8  S           1     172.839 185.696 277.723  0.00  0.00    -0.105 SA
BRANCH   8   9
HETATM    9  C           1     173.410 186.819 276.416  0.00  0.00     0.119 C 
BRANCH   9  10
HETATM   10  C           1     174.864 186.581 276.153  0.00  0.00    -0.049 A 
HETATM   11  C           1     175.391 185.294 276.268  0.00  0.00     0.008 A 
HETATM   12  C           1     176.746 185.072 276.022  0.00  0.00     0.001 A 
HETATM   13  C           1     177.574 186.135 275.663  0.00  0.00     0.000 A 
HETATM   14  C           1     177.046 187.422 275.549  0.00  0.00     0.001 A 
HETATM   15  C           1     175.692 187.644 275.793  0.00  0.00     0.008 A 
ENDBRANCH   9  10
ENDBRANCH   8   9
ENDBRANCH   3   8
ENDBRANCH   1   2
BRANCH   1  16
HETATM   16  N           1     174.654 186.873 281.511  0.00  0.00     0.087 N 
HETATM   17  H           1     175.429 187.339 281.041  0.00  0.00     0.316 HD
BRANCH  16  18
HETATM   18  C           1     175.167 185.865 282.399  0.00  0.00     0.270 C 
BRANCH  18  19
HETATM   19  C           1     174.071 184.855 282.711  0.00  0.00     0.034 C 
BRANCH  19  20
HETATM   20  C           1     173.673 184.972 284.176  0.00  0.00    -0.010 C 
HETATM   21  C           1     174.920 185.240 285.013  0.00  0.00     0.035 C 
HETATM   22  C           1     174.556 185.557 286.462  0.00  0.00     0.273 C 
HETATM   23  N           1     173.616 186.677 286.545  0.00  0.00     0.093 N 
HETATM   24  C           1     172.384 186.398 285.806  0.00  0.00     0.273 C 
HETATM   25  C           1     172.669 186.110 284.334  0.00  0.00     0.035 C 
BRANCH  23  26
HETATM   26  C           1     173.273 186.805 287.936  0.00  0.00     0.223 C 
HETATM   27  C           1     171.870 186.279 288.200  0.00  0.00     0.036 C 
HETATM   28  C           1     171.887 185.778 289.645  0.00  0.00     0.002 C 
HETATM   29  C           1     173.351 185.777 290.082  0.00  0.00     0.002 C 
HETATM   30  C           1     174.151 185.911 288.795  0.00  0.00     0.036 C 
ENDBRANCH  23  26
ENDBRANCH  19  20
ENDBRANCH  18  19
ENDBRANCH  16  18
ENDBRANCH   1  16
TORSDOF 9
ENDMDL
MODEL 5
REMARK VINA RESULT:      -7.6      3.128      5.899
REMARK  9 active torsions:
REMARK  status: ('A' for Active; 'I' for Inactive)
REMARK    1  A    between atoms: C_4  and  S_22 
REMARK    2  A    between atoms: C_5  and  C_7 
REMARK    3  A    between atoms: C_7  and  N_8 
REMARK    4  A    between atoms: N_8  and  C_9 
REMARK    5  A    between atoms: C_9  and  C_10 
REMARK    6  A    between atoms: C_10  and  C_11 
REMARK    7  A    between atoms: N_14  and  C_17 
REMARK    8  A    between atoms: S_22  and  C_29 
REMARK    9  A    between atoms: C_23  and  C_29 
ROOT
HETATM    1  C           1     174.146 185.358 275.925  0.00  0.00     0.311 C 
ENDROOT
BRANCH   1   2
HETATM    2  C           1     175.538 185.725 275.512  0.00  0.00     0.005 A 
HETATM    3  C           1     175.764 186.507 274.391  0.00  0.00     0.101 A 
HETATM    4  N           1     176.993 186.873 273.964  0.00  0.00    -0.254 NA
HETATM    5  C           1     178.041 186.434 274.695  0.00  0.00     0.118 A 
HETATM    6  C           1     177.916 185.649 275.829  0.00  0.00     0.020 A 
HETATM    7  C           1     176.638 185.290 276.243  0.00  0.00     0.013 A 
BRANCH   3   8
HETATM    8  S           1     174.326 187.074 273.440  0.00  0.00    -0.105 SA
BRANCH   8   9
HETATM    9  C           1     175.134 186.834 271.832  0.00  0.00     0.119 C 
BRANCH   9  10
HETATM   10  C           1     175.143 185.378 271.490  0.00  0.00    -0.049 A 
HETATM   11  C           1     174.002 184.604 271.706  0.00  0.00     0.008 A 
HETATM   12  C           1     174.010 183.246 271.387  0.00  0.00     0.001 A 
HETATM   13  C           1     175.158 182.661 270.853  0.00  0.00     0.000 A 
HETATM   14  C           1     176.299 183.435 270.637  0.00  0.00     0.001 A 
HETATM   15  C           1     176.291 184.792 270.956  0.00  0.00     0.008 A 
ENDBRANCH   9  10
ENDBRANCH   8   9
ENDBRANCH   3   8
ENDBRANCH   1   2
BRANCH   1  16
HETATM   16  N           1     174.019 185.492 277.351  0.00  0.00     0.087 N 
HETATM   17  H           1     174.158 184.583 277.791  0.00  0.00     0.316 HD
BRANCH  16  18
HETATM   18  C           1     172.687 185.961 277.629  0.00  0.00     0.270 C 
BRANCH  18  19
HETATM   19  C           1     172.742 187.039 278.703  0.00  0.00     0.034 C 
BRANCH  19  20
HETATM   20  C           1     173.304 186.447 279.989  0.00  0.00    -0.010 C 
HETATM   21  C           1     174.585 187.187 280.362  0.00  0.00     0.035 C 
HETATM   22  C           1     175.086 186.766 281.742  0.00  0.00     0.273 C 
HETATM   23  N           1     174.054 186.951 282.765  0.00  0.00     0.093 N 
HETATM   24  C           1     172.848 186.183 282.453  0.00  0.00     0.273 C 
HETATM   25  C           1     172.266 186.582 281.098  0.00  0.00     0.035 C 
BRANCH  23  26
HETATM   26  C           1     174.606 186.423 283.984  0.00  0.00     0.223 C 
HETATM   27  C           1     173.573 186.442 285.100  0.00  0.00     0.036 C 
HETATM   28  C           1     173.944 185.278 286.020  0.00  0.00     0.002 C 
HETATM   29  C           1     175.001 184.463 285.276  0.00  0.00     0.002 C 
HETATM   30  C           1     174.936 184.948 283.835  0.00  0.00     0.036 C 
ENDBRANCH  23  26
ENDBRANCH  19  20
ENDBRANCH  18  19
ENDBRANCH  16  18
ENDBRANCH   1  16
TORSDOF 9
ENDMDL
MODEL 6
REMARK VINA RESULT:      -7.4      3.745      5.766
REMARK  9 active torsions:
REMARK  status: ('A' for Active; 'I' for Inactive)
REMARK    1  A    between atoms: C_4  and  S_22 
REMARK    2  A    between atoms: C_5  and  C_7 
REMARK    3  A    between atoms: C_7  and  N_8 
REMARK    4  A    between atoms: N_8  and  C_9 
REMARK    5  A    between atoms: C_9  and  C_10 
REMARK    6  A    between atoms: C_10  and  C_11 
REMARK    7  A    between atoms: N_14  and  C_17 
REMARK    8  A    between atoms: S_22  and  C_29 
REMARK    9  A    between atoms: C_23  and  C_29 
ROOT
HETATM    1  C           1     174.298 186.823 276.742  0.00  0.00     0.311 C 
ENDROOT
BRANCH   1   2
HETATM    2  C           1     175.634 186.618 276.097  0.00  0.00     0.005 A 
HETATM    3  C           1     175.909 187.148 274.847  0.00  0.00     0.101 A 
HETATM    4  N           1     177.092 187.001 274.211  0.00  0.00    -0.254 NA
HETATM    5  C           1     178.041 186.289 274.858  0.00  0.00     0.118 A 
HETATM    6  C           1     177.861 185.721 276.108  0.00  0.00     0.020 A 
HETATM    7  C           1     176.632 185.891 276.738  0.00  0.00     0.013 A 
BRANCH   3   8
HETATM    8  S           1     174.604 188.097 274.015  0.00  0.00    -0.105 SA
BRANCH   8   9
HETATM    9  C           1     174.552 187.000 272.570  0.00  0.00     0.119 C 
BRANCH   9  10
HETATM   10  C           1     174.825 187.794 271.330  0.00  0.00    -0.049 A 
HETATM   11  C           1     174.664 187.204 270.076  0.00  0.00     0.008 A 
HETATM   12  C           1     174.917 187.944 268.921  0.00  0.00     0.001 A 
HETATM   13  C           1     175.333 189.272 269.019  0.00  0.00     0.000 A 
HETATM   14  C           1     175.494 189.860 270.274  0.00  0.00     0.001 A 
HETATM   15  C           1     175.240 189.121 271.429  0.00  0.00     0.008 A 
ENDBRANCH   9  10
ENDBRANCH   8   9
ENDBRANCH   3   8
ENDBRANCH   1   2
BRANCH   1  16
HETATM   16  N           1     173.754 185.550 277.132  0.00  0.00     0.087 N 
HETATM   17  H           1     173.125 185.212 276.403  0.00  0.00     0.316 HD
BRANCH  16  18
HETATM   18  C           1     173.014 185.746 278.350  0.00  0.00     0.270 C 
BRANCH  18  19
HETATM   19  C           1     173.729 186.773 279.218  0.00  0.00     0.034 C 
BRANCH  19  20
HETATM   20  C           1     173.841 186.244 280.643  0.00  0.00    -0.010 C 
HETATM   21  C           1     175.054 186.877 281.317  0.00  0.00     0.035 C 
HETATM   22  C           1     175.102 186.533 282.804  0.00  0.00     0.273 C 
HETATM   23  N           1     173.863 186.915 283.483  0.00  0.00     0.093 N 
HETATM   24  C           1     172.701 186.252 282.890  0.00  0.00     0.273 C 
HETATM   25  C           1     172.565 186.586 281.405  0.00  0.00     0.035 C 
BRANCH  23  26
HETATM   26  C           1     173.990 186.445 284.836  0.00  0.00     0.223 C 
HETATM   27  C           1     172.685 185.837 285.326  0.00  0.00     0.036 C 
HETATM   28  C           1     173.087 184.779 286.354  0.00  0.00     0.002 C 
HETATM   29  C           1     174.601 184.616 286.233  0.00  0.00     0.002 C 
HETATM   30  C           1     174.970 185.287 284.918  0.00  0.00     0.036 C 
ENDBRANCH  23  26
ENDBRANCH  19  20
ENDBRANCH  18  19
ENDBRANCH  16  18
ENDBRANCH   1  16
TORSDOF 9
ENDMDL
MODEL 7
REMARK VINA RESULT:      -7.4      8.771     13.115
REMARK  9 active torsions:
REMARK  status: ('A' for Active; 'I' for Inactive)
REMARK    1  A    between atoms: C_4  and  S_22 
REMARK    2  A    between atoms: C_5  and  C_7 
REMARK    3  A    between atoms: C_7  and  N_8 
REMARK    4  A    between atoms: N_8  and  C_9 
REMARK    5  A    between atoms: C_9  and  C_10 
REMARK    6  A    between atoms: C_10  and  C_11 
REMARK    7  A    between atoms: N_14  and  C_17 
REMARK    8  A    between atoms: S_22  and  C_29 
REMARK    9  A    between atoms: C_23  and  C_29 
ROOT
HETATM    1  C           1     175.410 186.496 268.788  0.00  0.00     0.311 C 
ENDROOT
BRANCH   1   2
HETATM    2  C           1     175.568 185.121 269.359  0.00  0.00     0.005 A 
HETATM    3  C           1     175.428 184.895 270.719  0.00  0.00     0.101 A 
HETATM    4  N           1     175.557 183.681 271.297  0.00  0.00    -0.254 NA
HETATM    5  C           1     175.840 182.647 270.474  0.00  0.00     0.118 A 
HETATM    6  C           1     175.999 182.773 269.104  0.00  0.00     0.020 A 
HETATM    7  C           1     175.859 184.036 268.539  0.00  0.00     0.013 A 
BRANCH   3   8
HETATM    8  S           1     175.047 186.313 271.786  0.00  0.00    -0.105 SA
BRANCH   8   9
HETATM    9  C           1     174.750 185.290 273.256  0.00  0.00     0.119 C 
BRANCH   9  10
HETATM   10  C           1     175.857 185.499 274.242  0.00  0.00    -0.049 A 
HETATM   11  C           1     177.010 186.186 273.859  0.00  0.00     0.008 A 
HETATM   12  C           1     178.041 186.382 274.778  0.00  0.00     0.001 A 
HETATM   13  C           1     177.921 185.891 276.078  0.00  0.00     0.000 A 
HETATM   14  C           1     176.768 185.204 276.460  0.00  0.00     0.001 A 
HETATM   15  C           1     175.737 185.008 275.542  0.00  0.00     0.008 A 
ENDBRANCH   9  10
ENDBRANCH   8   9
ENDBRANCH   3   8
ENDBRANCH   1   2
BRANCH   1  16
HETATM   16  N           1     174.237 186.539 267.959  0.00  0.00     0.087 N 
HETATM   17  H           1     174.509 186.448 266.981  0.00  0.00     0.316 HD
BRANCH  16  18
HETATM   18  C           1     173.604 187.815 268.163  0.00  0.00     0.270 C 
BRANCH  18  19
HETATM   19  C           1     174.504 188.920 267.627  0.00  0.00     0.034 C 
BRANCH  19  20
HETATM   20  C           1     174.398 190.144 268.527  0.00  0.00    -0.010 C 
HETATM   21  C           1     172.955 190.293 269.001  0.00  0.00     0.035 C 
HETATM   22  C           1     172.830 191.388 270.058  0.00  0.00     0.273 C 
HETATM   23  N           1     173.732 191.148 271.186  0.00  0.00     0.093 N 
HETATM   24  C           1     175.127 191.080 270.750  0.00  0.00     0.273 C 
HETATM   25  C           1     175.336 189.974 269.717  0.00  0.00     0.035 C 
BRANCH  23  26
HETATM   26  C           1     173.599 192.291 272.049  0.00  0.00     0.223 C 
HETATM   27  C           1     173.546 191.866 273.509  0.00  0.00     0.036 C 
HETATM   28  C           1     174.134 193.036 274.298  0.00  0.00     0.002 C 
HETATM   29  C           1     174.754 193.979 273.268  0.00  0.00     0.002 C 
HETATM   30  C           1     174.838 193.167 271.984  0.00  0.00     0.036 C 
ENDBRANCH  23  26
ENDBRANCH  19  20
ENDBRANCH  18  19
ENDBRANCH  16  18
ENDBRANCH   1  16
TORSDOF 9
ENDMDL
MODEL 8
REMARK VINA RESULT:      -7.4      3.396      6.584
REMARK  9 active torsions:
REMARK  status: ('A' for Active; 'I' for Inactive)
REMARK    1  A    between atoms: C_4  and  S_22 
REMARK    2  A    between atoms: C_5  and  C_7 
REMARK    3  A    between atoms: C_7  and  N_8 
REMARK    4  A    between atoms: N_8  and  C_9 
REMARK    5  A    between atoms: C_9  and  C_10 
REMARK    6  A    between atoms: C_10  and  C_11 
REMARK    7  A    between atoms: N_14  and  C_17 
REMARK    8  A    between atoms: S_22  and  C_29 
REMARK    9  A    between atoms: C_23  and  C_29 
ROOT
HETATM    1  C           1     173.196 187.723 274.819  0.00  0.00     0.311 C 
ENDROOT
BRANCH   1   2
HETATM    2  C           1     173.516 188.433 273.540  0.00  0.00     0.005 A 
HETATM    3  C           1     173.782 187.723 272.380  0.00  0.00     0.101 A 
HETATM    4  N           1     174.077 188.301 271.195  0.00  0.00    -0.254 NA
HETATM    5  C           1     174.107 189.652 271.172  0.00  0.00     0.118 A 
HETATM    6  C           1     173.856 190.447 272.278  0.00  0.00     0.020 A 
HETATM    7  C           1     173.554 189.822 273.483  0.00  0.00     0.013 A 
BRANCH   3   8
HETATM    8  S           1     173.730 185.910 272.457  0.00  0.00    -0.105 SA
BRANCH   8   9
HETATM    9  C           1     175.531 185.726 272.318  0.00  0.00     0.119 C 
BRANCH   9  10
HETATM   10  C           1     176.133 185.669 273.687  0.00  0.00    -0.049 A 
HETATM   11  C           1     177.358 186.291 273.936  0.00  0.00     0.008 A 
HETATM   12  C           1     177.919 186.239 275.211  0.00  0.00     0.001 A 
HETATM   13  C           1     177.258 185.565 276.238  0.00  0.00     0.000 A 
HETATM   14  C           1     176.034 184.943 275.989  0.00  0.00     0.001 A 
HETATM   15  C           1     175.473 184.995 274.714  0.00  0.00     0.008 A 
ENDBRANCH   9  10
ENDBRANCH   8   9
ENDBRANCH   3   8
ENDBRANCH   1   2
BRANCH   1  16
HETATM   16  N           1     172.111 188.396 275.481  0.00  0.00     0.087 N 
HETATM   17  H           1     172.395 189.346 275.717  0.00  0.00     0.316 HD
BRANCH  16  18
HETATM   18  C           1     171.819 187.669 276.688  0.00  0.00     0.270 C 
BRANCH  18  19
HETATM   19  C           1     172.619 186.374 276.707  0.00  0.00     0.034 C 
BRANCH  19  20
HETATM   20  C           1     173.079 186.081 278.129  0.00  0.00    -0.010 C 
HETATM   21  C           1     174.261 186.982 278.469  0.00  0.00     0.035 C 
HETATM   22  C           1     174.638 186.869 279.944  0.00  0.00     0.273 C 
HETATM   23  N           1     173.494 187.152 280.813  0.00  0.00     0.093 N 
HETATM   24  C           1     172.380 186.241 280.545  0.00  0.00     0.273 C 
HETATM   25  C           1     171.922 186.331 279.091  0.00  0.00     0.035 C 
BRANCH  23  26
HETATM   26  C           1     173.945 186.908 282.156  0.00  0.00     0.223 C 
HETATM   27  C           1     173.048 185.899 282.857  0.00  0.00     0.036 C 
HETATM   28  C           1     173.945 185.188 283.870  0.00  0.00     0.002 C 
HETATM   29  C           1     175.378 185.607 283.543  0.00  0.00     0.002 C 
HETATM   30  C           1     175.304 186.229 282.157  0.00  0.00     0.036 C 
ENDBRANCH  23  26
ENDBRANCH  19  20
ENDBRANCH  18  19
ENDBRANCH  16  18
ENDBRANCH   1  16
TORSDOF 9
ENDMDL
MODEL 9
REMARK VINA RESULT:      -7.3      8.743     14.582
REMARK  9 active torsions:
REMARK  status: ('A' for Active; 'I' for Inactive)
REMARK    1  A    between atoms: C_4  and  S_22 
REMARK    2  A    between atoms: C_5  and  C_7 
REMARK    3  A    between atoms: C_7  and  N_8 
REMARK    4  A    between atoms: N_8  and  C_9 
REMARK    5  A    between atoms: C_9  and  C_10 
REMARK    6  A    between atoms: C_10  and  C_11 
REMARK    7  A    between atoms: N_14  and  C_17 
REMARK    8  A    between atoms: S_22  and  C_29 
REMARK    9  A    between atoms: C_23  and  C_29 
ROOT
HETATM    1  C           1     172.415 185.811 271.343  0.00  0.00     0.311 C 
ENDROOT
BRANCH   1   2
HETATM    2  C           1     173.288 186.538 270.367  0.00  0.00     0.005 A 
HETATM    3  C           1     174.321 187.351 270.806  0.00  0.00     0.101 A 
HETATM    4  N           1     175.145 188.033 269.980  0.00  0.00    -0.254 NA
HETATM    5  C           1     174.922 187.893 268.654  0.00  0.00     0.118 A 
HETATM    6  C           1     173.916 187.104 268.120  0.00  0.00     0.020 A 
HETATM    7  C           1     173.085 186.414 268.997  0.00  0.00     0.013 A 
BRANCH   3   8
HETATM    8  S           1     174.584 187.509 272.595  0.00  0.00    -0.105 SA
BRANCH   8   9
HETATM    9  C           1     176.215 186.713 272.555  0.00  0.00     0.119 C 
BRANCH   9  10
HETATM   10  C           1     176.537 186.165 273.910  0.00  0.00    -0.049 A 
HETATM   11  C           1     175.612 185.356 274.571  0.00  0.00     0.008 A 
HETATM   12  C           1     175.912 184.845 275.834  0.00  0.00     0.001 A 
HETATM   13  C           1     177.134 185.143 276.436  0.00  0.00     0.000 A 
HETATM   14  C           1     178.058 185.954 275.774  0.00  0.00     0.001 A 
HETATM   15  C           1     177.758 186.464 274.512  0.00  0.00     0.008 A 
ENDBRANCH   9  10
ENDBRANCH   8   9
ENDBRANCH   3   8
ENDBRANCH   1   2
BRANCH   1  16
HETATM   16  N           1     173.191 184.818 272.034  0.00  0.00     0.087 N 
HETATM   17  H           1     174.090 185.217 272.304  0.00  0.00     0.316 HD
BRANCH  16  18
HETATM   18  C           1     173.407 183.723 271.126  0.00  0.00     0.270 C 
BRANCH  18  19
HETATM   19  C           1     174.798 183.145 271.349  0.00  0.00     0.034 C 
BRANCH  19  20
HETATM   20  C           1     175.551 183.107 270.025  0.00  0.00    -0.010 C 
HETATM   21  C           1     174.546 183.110 268.878  0.00  0.00     0.035 C 
HETATM   22  C           1     175.246 183.268 267.530  0.00  0.00     0.273 C 
HETATM   23  N           1     176.084 184.468 267.499  0.00  0.00     0.093 N 
HETATM   24  C           1     177.101 184.438 268.551  0.00  0.00     0.273 C 
HETATM   25  C           1     176.469 184.321 269.936  0.00  0.00     0.035 C 
BRANCH  23  26
HETATM   26  C           1     176.765 184.445 266.232  0.00  0.00     0.223 C 
HETATM   27  C           1     177.269 183.046 265.912  0.00  0.00     0.036 C 
HETATM   28  C           1     177.275 182.952 264.386  0.00  0.00     0.002 C 
HETATM   29  C           1     176.526 184.184 263.878  0.00  0.00     0.002 C 
HETATM   30  C           1     175.802 184.740 265.094  0.00  0.00     0.036 C 
ENDBRANCH  23  26
ENDBRANCH  19  20
ENDBRANCH  18  19
ENDBRANCH  16  18
ENDBRANCH   1  16
TORSDOF 9
ENDMDL
