MODEL 1
REMARK VINA RESULT:      -8.5      0.000      0.000
REMARK  9 active torsions:
REMARK  status: ('A' for Active; 'I' for Inactive)
REMARK    1  A    between atoms: C_5  and  S_23 
REMARK    2  A    between atoms: C_6  and  C_8 
REMARK    3  A    between atoms: C_8  and  N_9 
REMARK    4  A    between atoms: N_9  and  C_10 
REMARK    5  A    between atoms: C_10  and  C_11 
REMARK    6  A    between atoms: C_14  and  C_22 
REMARK    7  A    between atoms: N_17  and  C_22 
REMARK    8  A    between atoms: S_23  and  C_30 
REMARK    9  A    between atoms: C_24  and  C_30 
ROOT
HETATM    1  C           1     175.385 186.850 281.097  0.00  0.00     0.311 C 
ENDROOT
BRANCH   1   2
HETATM    2  C           1     174.208 187.772 281.148  0.00  0.00     0.003 A 
HETATM    3  C           1     173.051 187.490 280.438  0.00  0.00     0.077 A 
HETATM    4  N           1     171.956 188.279 280.442  0.00  0.00    -0.360 N 
HETATM    5  C           1     172.022 189.402 281.189  0.00  0.00     0.089 A 
ATOM      6  HN          1     171.121 188.039 279.908  1.00  0.00     0.166 HD
HETATM    7  C           1     173.131 189.770 281.932  0.00  0.00     0.018 A 
HETATM    8  C           1     174.245 188.937 281.908  0.00  0.00     0.013 A 
BRANCH   3   9
HETATM    9  S           1     173.006 185.970 279.447  0.00  0.00    -0.107 SA
BRANCH   9  10
HETATM   10  C           1     173.095 186.849 277.862  0.00  0.00     0.119 C 
BRANCH  10  11
HETATM   11  C           1     174.260 186.341 277.073  0.00  0.00    -0.049 A 
HETATM   12  C           1     175.553 186.763 277.387  0.00  0.00     0.008 A 
HETATM   13  C           1     176.639 186.288 276.651  0.00  0.00     0.001 A 
HETATM   14  C           1     176.434 185.394 275.601  0.00  0.00     0.000 A 
HETATM   15  C           1     175.141 184.973 275.287  0.00  0.00     0.001 A 
HETATM   16  C           1     174.055 185.446 276.024  0.00  0.00     0.008 A 
ENDBRANCH  10  11
ENDBRANCH   9  10
ENDBRANCH   3   9
ENDBRANCH   1   2
BRANCH   1  17
HETATM   17  N           1     175.692 186.387 282.424  0.00  0.00     0.091 N 
HETATM   18  H           1     176.673 186.111 282.469  0.00  0.00     0.316 HD
BRANCH  17  19
HETATM   19  C           1     174.859 185.245 282.692  0.00  0.00     0.308 C 
BRANCH  19  20
HETATM   20  C           1     174.343 185.323 284.096  0.00  0.00    -0.030 A 
HETATM   21  C           1     173.216 186.094 284.384  0.00  0.00     0.009 A 
HETATM   22  C           1     172.737 186.166 285.692  0.00  0.00     0.009 A 
HETATM   23  C           1     173.384 185.467 286.711  0.00  0.00    -0.030 A 
HETATM   24  C           1     174.509 184.697 286.423  0.00  0.00     0.009 A 
HETATM   25  C           1     174.989 184.625 285.116  0.00  0.00     0.009 A 
BRANCH  23  26
HETATM   26  C           1     172.868 185.545 288.114  0.00  0.00     0.311 C 
BRANCH  26  27
HETATM   27  N           1     173.666 186.472 288.869  0.00  0.00     0.092 N 
HETATM   28  C           1     172.791 187.488 289.446  0.00  0.00     0.273 C 
HETATM   29  C           1     172.098 186.763 290.586  0.00  0.00     0.032 C 
HETATM   30  C           1     173.039 185.625 290.964  0.00  0.00     0.032 C 
HETATM   31  C           1     174.217 185.754 290.015  0.00  0.00     0.273 C 
ENDBRANCH  26  27
ENDBRANCH  23  26
ENDBRANCH  19  20
ENDBRANCH  17  19
ENDBRANCH   1  17
TORSDOF 9
ENDMDL
MODEL 2
REMARK VINA RESULT:      -8.1      2.219     10.683
REMARK  9 active torsions:
REMARK  status: ('A' for Active; 'I' for Inactive)
REMARK    1  A    between atoms: C_5  and  S_23 
REMARK    2  A    between atoms: C_6  and  C_8 
REMARK    3  A    between atoms: C_8  and  N_9 
REMARK    4  A    between atoms: N_9  and  C_10 
REMARK    5  A    between atoms: C_10  and  C_11 
REMARK    6  A    between atoms: C_14  and  C_22 
REMARK    7  A    between atoms: N_17  and  C_22 
REMARK    8  A    between atoms: S_23  and  C_30 
REMARK    9  A    between atoms: C_24  and  C_30 
ROOT
HETATM    1  C           1     172.408 186.703 283.886  0.00  0.00     0.311 C 
ENDROOT
BRANCH   1   2
HETATM    2  C           1     173.308 185.845 284.720  0.00  0.00     0.003 A 
HETATM    3  C           1     173.113 185.731 286.088  0.00  0.00     0.077 A 
HETATM    4  N           1     173.887 184.976 286.896  0.00  0.00    -0.360 N 
HETATM    5  C           1     174.902 184.305 286.308  0.00  0.00     0.089 A 
ATOM      6  HN          1     173.715 184.914 287.899  1.00  0.00     0.166 HD
HETATM    7  C           1     175.176 184.356 284.952  0.00  0.00     0.018 A 
HETATM    8  C           1     174.361 185.143 284.145  0.00  0.00     0.013 A 
BRANCH   3   9
HETATM    9  S           1     171.739 186.650 286.836  0.00  0.00    -0.107 SA
BRANCH   9  10
HETATM   10  C           1     172.818 187.659 287.890  0.00  0.00     0.119 C 
BRANCH  10  11
HETATM   11  C           1     172.491 187.404 289.328  0.00  0.00    -0.049 A 
HETATM   12  C           1     171.576 188.223 289.991  0.00  0.00     0.008 A 
HETATM   13  C           1     171.272 187.985 291.331  0.00  0.00     0.001 A 
HETATM   14  C           1     171.882 186.931 292.010  0.00  0.00     0.000 A 
HETATM   15  C           1     172.798 186.113 291.347  0.00  0.00     0.001 A 
HETATM   16  C           1     173.101 186.350 290.006  0.00  0.00     0.008 A 
ENDBRANCH  10  11
ENDBRANCH   9  10
ENDBRANCH   3   9
ENDBRANCH   1   2
BRANCH   1  17
HETATM   17  N           1     173.071 187.039 282.654  0.00  0.00     0.091 N 
HETATM   18  H           1     173.007 188.045 282.498  0.00  0.00     0.316 HD
BRANCH  17  19
HETATM   19  C           1     172.397 186.345 281.591  0.00  0.00     0.308 C 
BRANCH  19  20
HETATM   20  C           1     173.207 186.449 280.335  0.00  0.00    -0.030 A 
HETATM   21  C           1     172.708 185.934 279.138  0.00  0.00     0.009 A 
HETATM   22  C           1     173.463 186.031 277.969  0.00  0.00     0.009 A 
HETATM   23  C           1     174.716 186.643 277.997  0.00  0.00    -0.030 A 
HETATM   24  C           1     175.214 187.158 279.193  0.00  0.00     0.009 A 
HETATM   25  C           1     174.459 187.061 280.362  0.00  0.00     0.009 A 
BRANCH  23  26
HETATM   26  C           1     175.525 186.747 276.742  0.00  0.00     0.311 C 
BRANCH  26  27
HETATM   27  N           1     176.011 185.445 276.375  0.00  0.00     0.092 N 
HETATM   28  C           1     175.649 185.181 274.985  0.00  0.00     0.273 C 
HETATM   29  C           1     176.613 186.046 274.190  0.00  0.00     0.032 C 
HETATM   30  C           1     177.813 186.250 275.107  0.00  0.00     0.032 C 
HETATM   31  C           1     177.470 185.497 276.381  0.00  0.00     0.273 C 
ENDBRANCH  26  27
ENDBRANCH  23  26
ENDBRANCH  19  20
ENDBRANCH  17  19
ENDBRANCH   1  17
TORSDOF 9
ENDMDL
MODEL 3
REMARK VINA RESULT:      -8.0      3.142      6.103
REMARK  9 active torsions:
REMARK  status: ('A' for Active; 'I' for Inactive)
REMARK    1  A    between atoms: C_5  and  S_23 
REMARK    2  A    between atoms: C_6  and  C_8 
REMARK    3  A    between atoms: C_8  and  N_9 
REMARK    4  A    between atoms: N_9  and  C_10 
REMARK    5  A    between atoms: C_10  and  C_11 
REMARK    6  A    between atoms: C_14  and  C_22 
REMARK    7  A    between atoms: N_17  and  C_22 
REMARK    8  A    between atoms: S_23  and  C_30 
REMARK    9  A    between atoms: C_24  and  C_30 
ROOT
HETATM    1  C           1     173.922 185.709 275.560  0.00  0.00     0.311 C 
ENDROOT
BRANCH   1   2
HETATM    2  C           1     175.382 185.979 275.367  0.00  0.00     0.003 A 
HETATM    3  C           1     175.817 186.888 274.415  0.00  0.00     0.077 A 
HETATM    4  N           1     177.117 187.177 274.191  0.00  0.00    -0.360 N 
HETATM    5  C           1     178.022 186.525 274.953  0.00  0.00     0.089 A 
ATOM      6  HN          1     177.401 187.853 273.483  1.00  0.00     0.166 HD
HETATM    7  C           1     177.685 185.599 275.928  0.00  0.00     0.018 A 
HETATM    8  C           1     176.338 185.324 276.135  0.00  0.00     0.013 A 
BRANCH   3   9
HETATM    9  S           1     174.567 187.742 273.413  0.00  0.00    -0.107 SA
BRANCH   9  10
HETATM   10  C           1     175.292 187.220 271.834  0.00  0.00     0.119 C 
BRANCH  10  11
HETATM   11  C           1     175.061 185.755 271.637  0.00  0.00    -0.049 A 
HETATM   12  C           1     173.782 185.222 271.801  0.00  0.00     0.008 A 
HETATM   13  C           1     173.567 183.857 271.617  0.00  0.00     0.001 A 
HETATM   14  C           1     174.629 183.023 271.270  0.00  0.00     0.000 A 
HETATM   15  C           1     175.908 183.555 271.108  0.00  0.00     0.001 A 
HETATM   16  C           1     176.124 184.921 271.290  0.00  0.00     0.008 A 
ENDBRANCH  10  11
ENDBRANCH   9  10
ENDBRANCH   3   9
ENDBRANCH   1   2
BRANCH   1  17
HETATM   17  N           1     173.654 185.493 276.957  0.00  0.00     0.091 N 
HETATM   18  H           1     172.880 184.836 277.056  0.00  0.00     0.316 HD
BRANCH  17  19
HETATM   19  C           1     173.287 186.759 277.533  0.00  0.00     0.308 C 
BRANCH  19  20
HETATM   20  C           1     173.488 186.709 279.015  0.00  0.00    -0.030 A 
HETATM   21  C           1     174.719 187.067 279.566  0.00  0.00     0.009 A 
HETATM   22  C           1     174.905 187.020 280.948  0.00  0.00     0.009 A 
HETATM   23  C           1     173.860 186.616 281.778  0.00  0.00    -0.030 A 
HETATM   24  C           1     172.630 186.259 281.228  0.00  0.00     0.009 A 
HETATM   25  C           1     172.443 186.306 279.847  0.00  0.00     0.009 A 
BRANCH  23  26
HETATM   26  C           1     174.060 186.566 283.261  0.00  0.00     0.311 C 
BRANCH  26  27
HETATM   27  N           1     173.623 185.292 283.762  0.00  0.00     0.092 N 
HETATM   28  C           1     174.739 184.647 284.449  0.00  0.00     0.273 C 
HETATM   29  C           1     174.848 185.411 285.757  0.00  0.00     0.032 C 
HETATM   30  C           1     173.460 185.995 285.994  0.00  0.00     0.032 C 
HETATM   31  C           1     172.632 185.540 284.805  0.00  0.00     0.273 C 
ENDBRANCH  26  27
ENDBRANCH  23  26
ENDBRANCH  19  20
ENDBRANCH  17  19
ENDBRANCH   1  17
TORSDOF 9
ENDMDL
MODEL 4
REMARK VINA RESULT:      -7.9      1.416      2.167
REMARK  9 active torsions:
REMARK  status: ('A' for Active; 'I' for Inactive)
REMARK    1  A    between atoms: C_5  and  S_23 
REMARK    2  A    between atoms: C_6  and  C_8 
REMARK    3  A    between atoms: C_8  and  N_9 
REMARK    4  A    between atoms: N_9  and  C_10 
REMARK    5  A    between atoms: C_10  and  C_11 
REMARK    6  A    between atoms: C_14  and  C_22 
REMARK    7  A    between atoms: N_17  and  C_22 
REMARK    8  A    between atoms: S_23  and  C_30 
REMARK    9  A    between atoms: C_24  and  C_30 
ROOT
HETATM    1  C           1     174.191 185.829 283.036  0.00  0.00     0.311 C 
ENDROOT
BRANCH   1   2
HETATM    2  C           1     173.429 187.104 282.851  0.00  0.00     0.003 A 
HETATM    3  C           1     173.593 187.871 281.708  0.00  0.00     0.077 A 
HETATM    4  N           1     172.937 189.029 281.480  0.00  0.00    -0.360 N 
HETATM    5  C           1     172.079 189.438 282.440  0.00  0.00     0.089 A 
ATOM      6  HN          1     173.081 189.568 280.626  1.00  0.00     0.166 HD
HETATM    7  C           1     171.849 188.742 283.615  0.00  0.00     0.018 A 
HETATM    8  C           1     172.539 187.552 283.821  0.00  0.00     0.013 A 
BRANCH   3   9
HETATM    9  S           1     174.756 187.284 280.444  0.00  0.00    -0.107 SA
BRANCH   9  10
HETATM   10  C           1     173.450 186.860 279.257  0.00  0.00     0.119 C 
BRANCH  10  11
HETATM   11  C           1     174.069 186.470 277.951  0.00  0.00    -0.049 A 
HETATM   12  C           1     173.329 185.745 277.017  0.00  0.00     0.008 A 
HETATM   13  C           1     173.906 185.382 275.800  0.00  0.00     0.001 A 
HETATM   14  C           1     175.223 185.744 275.516  0.00  0.00     0.000 A 
HETATM   15  C           1     175.963 186.469 276.451  0.00  0.00     0.001 A 
HETATM   16  C           1     175.385 186.833 277.667  0.00  0.00     0.008 A 
ENDBRANCH  10  11
ENDBRANCH   9  10
ENDBRANCH   3   9
ENDBRANCH   1   2
BRANCH   1  17
HETATM   17  N           1     175.024 185.932 284.203  0.00  0.00     0.091 N 
HETATM   18  H           1     176.002 185.989 283.918  0.00  0.00     0.316 HD
BRANCH  17  19
HETATM   19  C           1     174.823 184.745 284.991  0.00  0.00     0.308 C 
BRANCH  19  20
HETATM   20  C           1     173.996 185.079 286.193  0.00  0.00    -0.030 A 
HETATM   21  C           1     172.632 184.783 286.205  0.00  0.00     0.009 A 
HETATM   22  C           1     171.862 185.094 287.326  0.00  0.00     0.009 A 
HETATM   23  C           1     172.455 185.700 288.434  0.00  0.00    -0.030 A 
HETATM   24  C           1     173.817 185.994 288.421  0.00  0.00     0.009 A 
HETATM   25  C           1     174.588 185.684 287.301  0.00  0.00     0.009 A 
BRANCH  23  26
HETATM   26  C           1     171.627 186.034 289.636  0.00  0.00     0.311 C 
BRANCH  26  27
HETATM   27  N           1     172.368 186.912 290.500  0.00  0.00     0.092 N 
HETATM   28  C           1     171.569 188.109 290.753  0.00  0.00     0.273 C 
HETATM   29  C           1     170.504 187.634 291.725  0.00  0.00     0.032 C 
HETATM   30  C           1     171.111 186.419 292.418  0.00  0.00     0.032 C 
HETATM   31  C           1     172.489 186.259 291.800  0.00  0.00     0.273 C 
ENDBRANCH  26  27
ENDBRANCH  23  26
ENDBRANCH  19  20
ENDBRANCH  17  19
ENDBRANCH   1  17
TORSDOF 9
ENDMDL
MODEL 5
REMARK VINA RESULT:      -7.8      4.340      7.052
REMARK  9 active torsions:
REMARK  status: ('A' for Active; 'I' for Inactive)
REMARK    1  A    between atoms: C_5  and  S_23 
REMARK    2  A    between atoms: C_6  and  C_8 
REMARK    3  A    between atoms: C_8  and  N_9 
REMARK    4  A    between atoms: N_9  and  C_10 
REMARK    5  A    between atoms: C_10  and  C_11 
REMARK    6  A    between atoms: C_14  and  C_22 
REMARK    7  A    between atoms: N_17  and  C_22 
REMARK    8  A    between atoms: S_23  and  C_30 
REMARK    9  A    between atoms: C_24  and  C_30 
ROOT
HETATM    1  C           1     174.253 185.345 274.896  0.00  0.00     0.311 C 
ENDROOT
BRANCH   1   2
HETATM    2  C           1     175.707 185.700 274.886  0.00  0.00     0.003 A 
HETATM    3  C           1     176.295 186.257 273.762  0.00  0.00     0.077 A 
HETATM    4  N           1     177.599 186.599 273.688  0.00  0.00    -0.360 N 
HETATM    5  C           1     178.348 186.372 274.790  0.00  0.00     0.089 A 
ATOM      6  HN          1     178.000 187.008 272.844  1.00  0.00     0.166 HD
HETATM    7  C           1     177.851 185.821 275.959  0.00  0.00     0.018 A 
HETATM    8  C           1     176.503 185.479 276.005  0.00  0.00     0.013 A 
BRANCH   3   9
HETATM    9  S           1     175.253 186.543 272.304  0.00  0.00    -0.107 SA
BRANCH   9  10
HETATM   10  C           1     175.607 188.321 272.241  0.00  0.00     0.119 C 
BRANCH  10  11
HETATM   11  C           1     175.303 188.844 270.872  0.00  0.00    -0.049 A 
HETATM   12  C           1     175.327 190.218 270.628  0.00  0.00     0.008 A 
HETATM   13  C           1     175.044 190.704 269.352  0.00  0.00     0.001 A 
HETATM   14  C           1     174.735 189.819 268.320  0.00  0.00     0.000 A 
HETATM   15  C           1     174.710 188.445 268.564  0.00  0.00     0.001 A 
HETATM   16  C           1     174.995 187.958 269.840  0.00  0.00     0.008 A 
ENDBRANCH  10  11
ENDBRANCH   9  10
ENDBRANCH   3   9
ENDBRANCH   1   2
BRANCH   1  17
HETATM   17  N           1     173.781 185.284 276.254  0.00  0.00     0.091 N 
HETATM   18  H           1     172.912 184.752 276.287  0.00  0.00     0.316 HD
BRANCH  17  19
HETATM   19  C           1     173.537 186.632 276.693  0.00  0.00     0.308 C 
BRANCH  19  20
HETATM   20  C           1     173.494 186.669 278.189  0.00  0.00    -0.030 A 
HETATM   21  C           1     172.337 186.277 278.864  0.00  0.00     0.009 A 
HETATM   22  C           1     172.298 186.312 280.258  0.00  0.00     0.009 A 
HETATM   23  C           1     173.415 186.739 280.976  0.00  0.00    -0.030 A 
HETATM   24  C           1     174.571 187.129 280.302  0.00  0.00     0.009 A 
HETATM   25  C           1     174.610 187.094 278.908  0.00  0.00     0.009 A 
BRANCH  23  26
HETATM   26  C           1     173.372 186.776 282.472  0.00  0.00     0.311 C 
BRANCH  26  27
HETATM   27  N           1     172.987 185.485 282.974  0.00  0.00     0.092 N 
HETATM   28  C           1     174.153 184.606 282.962  0.00  0.00     0.273 C 
HETATM   29  C           1     174.986 185.096 284.134  0.00  0.00     0.032 C 
HETATM   30  C           1     173.994 185.772 285.073  0.00  0.00     0.032 C 
HETATM   31  C           1     172.646 185.640 284.385  0.00  0.00     0.273 C 
ENDBRANCH  26  27
ENDBRANCH  23  26
ENDBRANCH  19  20
ENDBRANCH  17  19
ENDBRANCH   1  17
TORSDOF 9
ENDMDL
MODEL 6
REMARK VINA RESULT:      -7.6      1.778      2.413
REMARK  9 active torsions:
REMARK  status: ('A' for Active; 'I' for Inactive)
REMARK    1  A    between atoms: C_5  and  S_23 
REMARK    2  A    between atoms: C_6  and  C_8 
REMARK    3  A    between atoms: C_8  and  N_9 
REMARK    4  A    between atoms: N_9  and  C_10 
REMARK    5  A    between atoms: C_10  and  C_11 
REMARK    6  A    between atoms: C_14  and  C_22 
REMARK    7  A    between atoms: N_17  and  C_22 
REMARK    8  A    between atoms: S_23  and  C_30 
REMARK    9  A    between atoms: C_24  and  C_30 
ROOT
HETATM    1  C           1     173.409 185.995 279.860  0.00  0.00     0.311 C 
ENDROOT
BRANCH   1   2
HETATM    2  C           1     172.262 186.637 279.143  0.00  0.00     0.003 A 
HETATM    3  C           1     172.168 186.584 277.761  0.00  0.00     0.077 A 
HETATM    4  N           1     171.161 187.141 277.055  0.00  0.00    -0.360 N 
HETATM    5  C           1     170.207 187.782 277.764  0.00  0.00     0.089 A 
ATOM      6  HN          1     171.123 187.082 276.037  1.00  0.00     0.166 HD
HETATM    7  C           1     170.214 187.889 279.145  0.00  0.00     0.018 A 
HETATM    8  C           1     171.264 187.304 279.845  0.00  0.00     0.013 A 
BRANCH   3   9
HETATM    9  S           1     173.473 185.713 276.847  0.00  0.00    -0.107 SA
BRANCH   9  10
HETATM   10  C           1     174.561 187.163 276.767  0.00  0.00     0.119 C 
BRANCH  10  11
HETATM   11  C           1     175.835 186.794 276.073  0.00  0.00    -0.049 A 
HETATM   12  C           1     176.923 186.329 276.812  0.00  0.00     0.008 A 
HETATM   13  C           1     178.109 185.986 276.165  0.00  0.00     0.001 A 
HETATM   14  C           1     178.209 186.106 274.779  0.00  0.00     0.000 A 
HETATM   15  C           1     177.121 186.572 274.040  0.00  0.00     0.001 A 
HETATM   16  C           1     175.934 186.914 274.688  0.00  0.00     0.008 A 
ENDBRANCH  10  11
ENDBRANCH   9  10
ENDBRANCH   3   9
ENDBRANCH   1   2
BRANCH   1  17
HETATM   17  N           1     173.018 185.679 281.207  0.00  0.00     0.091 N 
HETATM   18  H           1     172.590 186.499 281.637  0.00  0.00     0.316 HD
BRANCH  17  19
HETATM   19  C           1     174.205 185.320 281.935  0.00  0.00     0.308 C 
BRANCH  19  20
HETATM   20  C           1     173.916 185.343 283.404  0.00  0.00    -0.030 A 
HETATM   21  C           1     174.789 184.721 284.297  0.00  0.00     0.009 A 
HETATM   22  C           1     174.518 184.743 285.665  0.00  0.00     0.009 A 
HETATM   23  C           1     173.375 185.385 286.140  0.00  0.00    -0.030 A 
HETATM   24  C           1     172.503 186.006 285.247  0.00  0.00     0.009 A 
HETATM   25  C           1     172.773 185.985 283.879  0.00  0.00     0.009 A 
BRANCH  23  26
HETATM   26  C           1     173.085 185.408 287.609  0.00  0.00     0.311 C 
BRANCH  26  27
HETATM   27  N           1     173.806 186.489 288.224  0.00  0.00     0.092 N 
HETATM   28  C           1     172.866 187.315 288.977  0.00  0.00     0.273 C 
HETATM   29  C           1     172.559 186.480 290.209  0.00  0.00     0.032 C 
HETATM   30  C           1     173.765 185.563 290.378  0.00  0.00     0.032 C 
HETATM   31  C           1     174.695 185.916 289.230  0.00  0.00     0.273 C 
ENDBRANCH  26  27
ENDBRANCH  23  26
ENDBRANCH  19  20
ENDBRANCH  17  19
ENDBRANCH   1  17
TORSDOF 9
ENDMDL
MODEL 7
REMARK VINA RESULT:      -7.6      2.304      5.181
REMARK  9 active torsions:
REMARK  status: ('A' for Active; 'I' for Inactive)
REMARK    1  A    between atoms: C_5  and  S_23 
REMARK    2  A    between atoms: C_6  and  C_8 
REMARK    3  A    between atoms: C_8  and  N_9 
REMARK    4  A    between atoms: N_9  and  C_10 
REMARK    5  A    between atoms: C_10  and  C_11 
REMARK    6  A    between atoms: C_14  and  C_22 
REMARK    7  A    between atoms: N_17  and  C_22 
REMARK    8  A    between atoms: S_23  and  C_30 
REMARK    9  A    between atoms: C_24  and  C_30 
ROOT
HETATM    1  C           1     173.816 186.106 280.959  0.00  0.00     0.311 C 
ENDROOT
BRANCH   1   2
HETATM    2  C           1     172.739 186.392 279.959  0.00  0.00     0.003 A 
HETATM    3  C           1     172.004 187.566 280.021  0.00  0.00     0.077 A 
HETATM    4  N           1     171.022 187.884 279.152  0.00  0.00    -0.360 N 
HETATM    5  C           1     170.762 186.986 278.176  0.00  0.00     0.089 A 
ATOM      6  HN          1     170.501 188.758 279.227  1.00  0.00     0.166 HD
HETATM    7  C           1     171.441 185.787 278.032  0.00  0.00     0.018 A 
HETATM    8  C           1     172.449 185.488 278.943  0.00  0.00     0.013 A 
BRANCH   3   9
HETATM    9  S           1     172.385 188.744 281.348  0.00  0.00    -0.107 SA
BRANCH   9  10
HETATM   10  C           1     171.258 190.017 280.716  0.00  0.00     0.119 C 
BRANCH  10  11
HETATM   11  C           1     170.854 190.927 281.833  0.00  0.00    -0.049 A 
HETATM   12  C           1     169.796 190.574 282.672  0.00  0.00     0.008 A 
HETATM   13  C           1     169.420 191.423 283.713  0.00  0.00     0.001 A 
HETATM   14  C           1     170.100 192.623 283.917  0.00  0.00     0.000 A 
HETATM   15  C           1     171.157 192.976 283.077  0.00  0.00     0.001 A 
HETATM   16  C           1     171.534 192.127 282.037  0.00  0.00     0.008 A 
ENDBRANCH  10  11
ENDBRANCH   9  10
ENDBRANCH   3   9
ENDBRANCH   1   2
BRANCH   1  17
HETATM   17  N           1     173.400 185.032 281.819  0.00  0.00     0.091 N 
HETATM   18  H           1     172.593 185.329 282.368  0.00  0.00     0.316 HD
BRANCH  17  19
HETATM   19  C           1     174.494 184.728 282.702  0.00  0.00     0.308 C 
BRANCH  19  20
HETATM   20  C           1     174.052 184.900 284.122  0.00  0.00    -0.030 A 
HETATM   21  C           1     172.749 185.313 284.402  0.00  0.00     0.009 A 
HETATM   22  C           1     172.339 185.473 285.726  0.00  0.00     0.009 A 
HETATM   23  C           1     173.230 185.218 286.768  0.00  0.00    -0.030 A 
HETATM   24  C           1     174.531 184.804 286.488  0.00  0.00     0.009 A 
HETATM   25  C           1     174.942 184.645 285.165  0.00  0.00     0.009 A 
BRANCH  23  26
HETATM   26  C           1     172.788 185.389 288.189  0.00  0.00     0.311 C 
BRANCH  26  27
HETATM   27  N           1     173.680 186.292 288.864  0.00  0.00     0.092 N 
HETATM   28  C           1     172.921 187.453 289.320  0.00  0.00     0.273 C 
HETATM   29  C           1     172.139 186.928 290.512  0.00  0.00     0.032 C 
HETATM   30  C           1     172.942 185.736 291.019  0.00  0.00     0.032 C 
HETATM   31  C           1     174.136 185.636 290.086  0.00  0.00     0.273 C 
ENDBRANCH  26  27
ENDBRANCH  23  26
ENDBRANCH  19  20
ENDBRANCH  17  19
ENDBRANCH   1  17
TORSDOF 9
ENDMDL
MODEL 8
REMARK VINA RESULT:      -7.4      2.434     10.778
REMARK  9 active torsions:
REMARK  status: ('A' for Active; 'I' for Inactive)
REMARK    1  A    between atoms: C_5  and  S_23 
REMARK    2  A    between atoms: C_6  and  C_8 
REMARK    3  A    between atoms: C_8  and  N_9 
REMARK    4  A    between atoms: N_9  and  C_10 
REMARK    5  A    between atoms: C_10  and  C_11 
REMARK    6  A    between atoms: C_14  and  C_22 
REMARK    7  A    between atoms: N_17  and  C_22 
REMARK    8  A    between atoms: S_23  and  C_30 
REMARK    9  A    between atoms: C_24  and  C_30 
ROOT
HETATM    1  C           1     172.686 186.305 282.080  0.00  0.00     0.311 C 
ENDROOT
BRANCH   1   2
HETATM    2  C           1     174.036 186.213 282.722  0.00  0.00     0.003 A 
HETATM    3  C           1     174.162 185.974 284.081  0.00  0.00     0.077 A 
HETATM    4  N           1     175.348 185.879 284.720  0.00  0.00    -0.360 N 
HETATM    5  C           1     176.457 186.031 283.963  0.00  0.00     0.089 A 
ATOM      6  HN          1     175.404 185.702 285.723  1.00  0.00     0.166 HD
HETATM    7  C           1     176.433 186.272 282.599  0.00  0.00     0.018 A 
HETATM    8  C           1     175.196 186.364 281.970  0.00  0.00     0.013 A 
BRANCH   3   9
HETATM    9  S           1     172.646 185.778 285.060  0.00  0.00    -0.107 SA
BRANCH   9  10
HETATM   10  C           1     172.859 187.349 285.942  0.00  0.00     0.119 C 
BRANCH  10  11
HETATM   11  C           1     172.980 187.085 287.411  0.00  0.00    -0.049 A 
HETATM   12  C           1     172.186 187.793 288.314  0.00  0.00     0.008 A 
HETATM   13  C           1     172.299 187.547 289.682  0.00  0.00     0.001 A 
HETATM   14  C           1     173.205 186.594 290.148  0.00  0.00     0.000 A 
HETATM   15  C           1     173.998 185.887 289.245  0.00  0.00     0.001 A 
HETATM   16  C           1     173.885 186.132 287.876  0.00  0.00     0.008 A 
ENDBRANCH  10  11
ENDBRANCH   9  10
ENDBRANCH   3   9
ENDBRANCH   1   2
BRANCH   1  17
HETATM   17  N           1     172.716 185.651 280.800  0.00  0.00     0.091 N 
HETATM   18  H           1     173.670 185.353 280.593  0.00  0.00     0.316 HD
BRANCH  17  19
HETATM   19  C           1     172.285 186.603 279.812  0.00  0.00     0.308 C 
BRANCH  19  20
HETATM   20  C           1     173.068 186.401 278.551  0.00  0.00    -0.030 A 
HETATM   21  C           1     174.391 186.837 278.473  0.00  0.00     0.009 A 
HETATM   22  C           1     175.119 186.648 277.298  0.00  0.00     0.009 A 
HETATM   23  C           1     174.524 186.025 276.202  0.00  0.00    -0.030 A 
HETATM   24  C           1     173.202 185.589 276.280  0.00  0.00     0.009 A 
HETATM   25  C           1     172.474 185.777 277.454  0.00  0.00     0.009 A 
BRANCH  23  26
HETATM   26  C           1     175.306 185.823 274.941  0.00  0.00     0.311 C 
BRANCH  26  27
HETATM   27  N           1     174.459 186.070 273.806  0.00  0.00     0.092 N 
HETATM   28  C           1     175.049 187.136 273.000  0.00  0.00     0.273 C 
HETATM   29  C           1     176.217 186.458 272.304  0.00  0.00     0.032 C 
HETATM   30  C           1     175.854 184.978 272.269  0.00  0.00     0.032 C 
HETATM   31  C           1     174.501 184.885 272.953  0.00  0.00     0.273 C 
ENDBRANCH  26  27
ENDBRANCH  23  26
ENDBRANCH  19  20
ENDBRANCH  17  19
ENDBRANCH   1  17
TORSDOF 9
ENDMDL
MODEL 9
REMARK VINA RESULT:      -7.3      3.627     11.730
REMARK  9 active torsions:
REMARK  status: ('A' for Active; 'I' for Inactive)
REMARK    1  A    between atoms: C_5  and  S_23 
REMARK    2  A    between atoms: C_6  and  C_8 
REMARK    3  A    between atoms: C_8  and  N_9 
REMARK    4  A    between atoms: N_9  and  C_10 
REMARK    5  A    between atoms: C_10  and  C_11 
REMARK    6  A    between atoms: C_14  and  C_22 
REMARK    7  A    between atoms: N_17  and  C_22 
REMARK    8  A    between atoms: S_23  and  C_30 
REMARK    9  A    between atoms: C_24  and  C_30 
ROOT
HETATM    1  C           1     175.118 186.781 278.263  0.00  0.00     0.311 C 
ENDROOT
BRANCH   1   2
HETATM    2  C           1     173.626 186.678 278.328  0.00  0.00     0.003 A 
HETATM    3  C           1     172.963 186.721 279.544  0.00  0.00     0.077 A 
HETATM    4  N           1     171.621 186.634 279.672  0.00  0.00    -0.360 N 
HETATM    5  C           1     170.912 186.497 278.530  0.00  0.00     0.089 A 
ATOM      6  HN          1     171.166 186.669 280.584  1.00  0.00     0.166 HD
HETATM    7  C           1     171.484 186.445 277.269  0.00  0.00     0.018 A 
HETATM    8  C           1     172.868 186.537 277.171  0.00  0.00     0.013 A 
BRANCH   3   9
HETATM    9  S           1     173.954 186.904 281.054  0.00  0.00    -0.107 SA
BRANCH   9  10
HETATM   10  C           1     172.681 186.190 282.131  0.00  0.00     0.119 C 
BRANCH  10  11
HETATM   11  C           1     173.280 185.856 283.461  0.00  0.00    -0.049 A 
HETATM   12  C           1     174.339 184.952 283.542  0.00  0.00     0.008 A 
HETATM   13  C           1     174.897 184.642 284.782  0.00  0.00     0.001 A 
HETATM   14  C           1     174.398 185.235 285.941  0.00  0.00     0.000 A 
HETATM   15  C           1     173.338 186.139 285.860  0.00  0.00     0.001 A 
HETATM   16  C           1     172.780 186.450 284.619  0.00  0.00     0.008 A 
ENDBRANCH  10  11
ENDBRANCH   9  10
ENDBRANCH   3   9
ENDBRANCH   1   2
BRANCH   1  17
HETATM   17  N           1     175.518 187.133 276.927  0.00  0.00     0.091 N 
HETATM   18  H           1     174.697 187.150 276.321  0.00  0.00     0.316 HD
BRANCH  17  19
HETATM   19  C           1     176.436 186.127 276.466  0.00  0.00     0.308 C 
BRANCH  19  20
HETATM   20  C           1     176.126 185.785 275.041  0.00  0.00    -0.030 A 
HETATM   21  C           1     177.002 186.169 274.025  0.00  0.00     0.009 A 
HETATM   22  C           1     176.712 185.849 272.698  0.00  0.00     0.009 A 
HETATM   23  C           1     175.547 185.146 272.388  0.00  0.00    -0.030 A 
HETATM   24  C           1     174.674 184.763 273.404  0.00  0.00     0.009 A 
HETATM   25  C           1     174.963 185.082 274.731  0.00  0.00     0.009 A 
BRANCH  23  26
HETATM   26  C           1     175.238 184.804 270.964  0.00  0.00     0.311 C 
BRANCH  26  27
HETATM   27  N           1     174.965 183.397 270.857  0.00  0.00     0.092 N 
HETATM   28  C           1     173.972 183.187 269.807  0.00  0.00     0.273 C 
HETATM   29  C           1     174.755 183.393 268.522  0.00  0.00     0.032 C 
HETATM   30  C           1     176.205 183.098 268.889  0.00  0.00     0.032 C 
HETATM   31  C           1     176.176 182.746 270.366  0.00  0.00     0.273 C 
ENDBRANCH  26  27
ENDBRANCH  23  26
ENDBRANCH  19  20
ENDBRANCH  17  19
ENDBRANCH   1  17
TORSDOF 9
ENDMDL
