REMARK  8 active torsions:
REMARK  status: ('A' for Active; 'I' for Inactive)
REMARK    1  A    between atoms: N2_7  and  C6_8 
REMARK    2  A    between atoms: C6_8  and  C7_9 
REMARK    3  A    between atoms: C7_9  and  N3_10 
REMARK    4  A    between atoms: N3_10  and  C8_11 
REMARK    5  A    between atoms: C8_11  and  C9_12 
REMARK    6  A    between atoms: C17_21  and  S1_22 
REMARK    7  A    between atoms: S1_22  and  C18_23 
REMARK    8  A    between atoms: C18_23  and  C19_24 
ROOT
HETATM    1  C9  UNL     1       0.640  -2.338  -0.727  1.00  0.00     0.006 A 
HETATM    2  C10 UNL     1       1.949  -2.050  -1.159  1.00  0.00     0.025 A 
HETATM    3  C11 UNL     1       2.274  -0.770  -1.622  1.00  0.00    -0.007 A 
HETATM    4  C12 UNL     1       3.584  -0.442  -2.005  1.00  0.00     0.014 A 
HETATM    5  C13 UNL     1       3.881   0.858  -2.434  1.00  0.00     0.001 A 
HETATM    6  C14 UNL     1       2.874   1.825  -2.504  1.00  0.00     0.002 A 
HETATM    7  C15 UNL     1       1.568   1.506  -2.122  1.00  0.00     0.032 A 
HETATM    8  C16 UNL     1       1.267   0.215  -1.674  1.00  0.00     0.068 A 
HETATM    9  N4  UNL     1       0.006  -0.089  -1.272  1.00  0.00    -0.241 NA
HETATM   10  C17 UNL     1      -0.337  -1.320  -0.806  1.00  0.00     0.102 A 
ENDROOT
BRANCH   1  11
HETATM   11  C8  UNL     1       0.321  -3.708  -0.174  1.00  0.00     0.311 C 
BRANCH  11  12
HETATM   12  N3  UNL     1      -0.105  -3.612   1.225  1.00  0.00     0.089 N 
HETATM   13  H16 UNL     1      -0.570  -4.513   1.485  1.00  0.00     0.316 HD
BRANCH  12  14
HETATM   14  C7  UNL     1       1.030  -3.399   2.137  1.00  0.00     0.300 C 
BRANCH  14  15
HETATM   15  C6  UNL     1       0.570  -2.575   3.343  1.00  0.00     0.302 C 
BRANCH  15  16
HETATM   16  N2  UNL     1      -0.011  -1.285   2.903  1.00  0.00     0.093 N 
HETATM   17  C3  UNL     1      -0.990  -0.793   3.893  1.00  0.00     0.302 C 
HETATM   18  C2  UNL     1      -1.611   0.524   3.413  1.00  0.00     0.302 C 
HETATM   19  N1  UNL     1      -0.555   1.531   3.201  1.00  0.00     0.087 N 
HETATM   20  C1  UNL     1      -1.150   2.793   2.737  1.00  0.00     0.310 C 
HETATM   21  C4  UNL     1       0.416   1.040   2.208  1.00  0.00     0.302 C 
HETATM   22  C5  UNL     1       1.042  -0.271   2.691  1.00  0.00     0.302 C 
ENDBRANCH  15  16
ENDBRANCH  14  15
ENDBRANCH  12  14
ENDBRANCH  11  12
ENDBRANCH   1  11
BRANCH  10  23
HETATM   23  S1  UNL     1      -2.031  -1.563  -0.253  1.00  0.00    -0.105 SA
BRANCH  23  24
HETATM   24  C18 UNL     1      -2.686  -2.102  -1.875  1.00  0.00     0.119 C 
BRANCH  24  25
HETATM   25  C19 UNL     1      -2.432  -1.086  -2.962  1.00  0.00    -0.049 A 
HETATM   26  C20 UNL     1      -2.898   0.236  -2.824  1.00  0.00     0.008 A 
HETATM   27  C21 UNL     1      -2.648   1.176  -3.832  1.00  0.00     0.001 A 
HETATM   28  C22 UNL     1      -1.951   0.804  -4.986  1.00  0.00     0.000 A 
HETATM   29  C23 UNL     1      -1.483  -0.505  -5.125  1.00  0.00     0.001 A 
HETATM   30  C24 UNL     1      -1.713  -1.447  -4.118  1.00  0.00     0.008 A 
ENDBRANCH  24  25
ENDBRANCH  23  24
ENDBRANCH  10  23
TORSDOF 8
