MODEL 1
REMARK VINA RESULT:      -7.1      0.000      0.000
REMARK  10 active torsions:
REMARK  status: ('A' for Active; 'I' for Inactive)
REMARK    1  A    between atoms: C_1  and  C_20 
REMARK    2  A    between atoms: C_5  and  S_26 
REMARK    3  A    between atoms: C_6  and  C_8 
REMARK    4  A    between atoms: C_8  and  N_9 
REMARK    5  A    between atoms: N_9  and  C_10 
REMARK    6  A    between atoms: C_10  and  C_11 
REMARK    7  A    between atoms: C_11  and  C_12 
REMARK    8  A    between atoms: N_15  and  C_18 
REMARK    9  A    between atoms: S_26  and  C_33 
REMARK   10  A    between atoms: C_27  and  C_33 
ROOT
HETATM    1  C           1     175.423 185.390 272.478  0.00  0.00    -0.010 A 
HETATM    2  C           1     176.204 185.405 271.333  0.00  0.00     0.101 A 
HETATM    3  N           1     175.706 185.294 270.082  0.00  0.00    -0.359 N 
ATOM      4  HN          1     176.312 185.309 269.261  1.00  0.00     0.166 HD
HETATM    5  C           1     174.365 185.164 269.974  0.00  0.00     0.077 A 
HETATM    6  C           1     173.504 185.138 271.058  0.00  0.00     0.004 A 
HETATM    7  C           1     174.047 185.253 272.333  0.00  0.00     0.025 A 
ENDROOT
BRANCH   6   8
HETATM    8  C           1     172.027 184.990 270.862  0.00  0.00     0.307 C 
BRANCH   8   9
HETATM    9  N           1     171.344 186.068 271.525  0.00  0.00     0.087 N 
HETATM   10  H           1     170.425 185.748 271.834  0.00  0.00     0.316 HD
BRANCH   9  11
HETATM   11  C           1     171.185 187.135 270.575  0.00  0.00     0.270 C 
BRANCH  11  12
HETATM   12  C           1     171.009 188.454 271.315  0.00  0.00     0.034 C 
BRANCH  12  13
HETATM   13  C           1     172.126 189.411 270.923  0.00  0.00    -0.010 C 
HETATM   14  C           1     171.607 190.844 270.999  0.00  0.00     0.035 C 
HETATM   15  C           1     172.738 191.852 270.805  0.00  0.00     0.272 C 
HETATM   16  N           1     173.823 191.633 271.763  0.00  0.00     0.088 N 
HETATM   17  C           1     174.378 190.284 271.643  0.00  0.00     0.272 C 
HETATM   18  C           1     173.307 189.218 271.868  0.00  0.00     0.035 C 
BRANCH  16  19
HETATM   19  C           1     174.860 192.565 271.409  0.00  0.00     0.268 C 
HETATM   20  C           1     175.879 191.874 270.513  0.00  0.00     0.037 C 
ENDBRANCH  16  19
ENDBRANCH  12  13
ENDBRANCH  11  12
ENDBRANCH   9  11
ENDBRANCH   8   9
ENDBRANCH   6   8
BRANCH   5  21
HETATM   21  S           1     173.653 185.014 268.311  0.00  0.00    -0.107 SA
BRANCH  21  22
HETATM   22  C           1     174.756 186.261 267.588  0.00  0.00     0.122 C 
BRANCH  22  23
HETATM   23  C           1     174.056 187.583 267.546  0.00  0.00    -0.049 A 
HETATM   24  C           1     172.729 187.657 267.124  0.00  0.00     0.008 A 
HETATM   25  C           1     172.076 188.888 267.085  0.00  0.00     0.001 A 
HETATM   26  C           1     172.752 190.048 267.466  0.00  0.00     0.000 A 
HETATM   27  C           1     174.080 189.975 267.887  0.00  0.00     0.001 A 
HETATM   28  C           1     174.732 188.742 267.927  0.00  0.00     0.008 A 
ENDBRANCH  22  23
ENDBRANCH  21  22
ENDBRANCH   5  21
BRANCH   1  29
HETATM   29  C           1     175.979 185.502 273.689  0.00  0.00    -0.025 A 
HETATM   30  C           1     175.330 184.976 274.806  0.00  0.00     0.012 A 
HETATM   31  C           1     175.910 185.093 276.069  0.00  0.00     0.001 A 
HETATM   32  C           1     177.138 185.738 276.215  0.00  0.00     0.000 A 
HETATM   33  C           1     177.786 186.265 275.098  0.00  0.00     0.001 A 
HETATM   34  C           1     177.207 186.147 273.835  0.00  0.00     0.012 A 
ENDBRANCH   1  29
TORSDOF 10
ENDMDL
MODEL 2
REMARK VINA RESULT:      -7.1      8.426     12.059
REMARK  10 active torsions:
REMARK  status: ('A' for Active; 'I' for Inactive)
REMARK    1  A    between atoms: C_1  and  C_20 
REMARK    2  A    between atoms: C_5  and  S_26 
REMARK    3  A    between atoms: C_6  and  C_8 
REMARK    4  A    between atoms: C_8  and  N_9 
REMARK    5  A    between atoms: N_9  and  C_10 
REMARK    6  A    between atoms: C_10  and  C_11 
REMARK    7  A    between atoms: C_11  and  C_12 
REMARK    8  A    between atoms: N_15  and  C_18 
REMARK    9  A    between atoms: S_26  and  C_33 
REMARK   10  A    between atoms: C_27  and  C_33 
ROOT
HETATM    1  C           1     171.639 189.340 280.924  0.00  0.00    -0.010 A 
HETATM    2  C           1     170.838 189.019 279.839  0.00  0.00     0.101 A 
HETATM    3  N           1     171.028 187.933 279.060  0.00  0.00    -0.359 N 
ATOM      4  HN          1     170.417 187.728 278.268  1.00  0.00     0.166 HD
HETATM    5  C           1     172.067 187.130 279.382  0.00  0.00     0.077 A 
HETATM    6  C           1     172.922 187.367 280.446  0.00  0.00     0.004 A 
HETATM    7  C           1     172.701 188.495 281.230  0.00  0.00     0.025 A 
ENDROOT
BRANCH   6   8
HETATM    8  C           1     174.054 186.435 280.744  0.00  0.00     0.307 C 
BRANCH   8   9
HETATM    9  N           1     175.040 187.115 281.539  0.00  0.00     0.087 N 
HETATM   10  H           1     175.815 187.405 280.943  0.00  0.00     0.316 HD
BRANCH   9  11
HETATM   11  C           1     175.518 186.188 282.529  0.00  0.00     0.270 C 
BRANCH  11  12
HETATM   12  C           1     174.536 185.032 282.661  0.00  0.00     0.034 C 
BRANCH  12  13
HETATM   13  C           1     173.977 184.997 284.077  0.00  0.00    -0.010 C 
HETATM   14  C           1     175.088 185.345 285.063  0.00  0.00     0.035 C 
HETATM   15  C           1     174.538 185.514 286.478  0.00  0.00     0.272 C 
HETATM   16  N           1     173.465 186.508 286.522  0.00  0.00     0.088 N 
HETATM   17  C           1     172.360 186.141 285.634  0.00  0.00     0.272 C 
HETATM   18  C           1     172.829 185.995 284.189  0.00  0.00     0.035 C 
BRANCH  16  19
HETATM   19  C           1     172.965 186.495 287.870  0.00  0.00     0.268 C 
HETATM   20  C           1     171.871 187.543 288.017  0.00  0.00     0.037 C 
ENDBRANCH  16  19
ENDBRANCH  12  13
ENDBRANCH  11  12
ENDBRANCH   9  11
ENDBRANCH   8   9
ENDBRANCH   6   8
BRANCH   5  21
HETATM   21  S           1     172.357 185.658 278.362  0.00  0.00    -0.107 SA
BRANCH  21  22
HETATM   22  C           1     172.941 186.609 276.931  0.00  0.00     0.122 C 
BRANCH  22  23
HETATM   23  C           1     174.344 186.206 276.601  0.00  0.00    -0.049 A 
HETATM   24  C           1     175.416 186.803 277.264  0.00  0.00     0.008 A 
HETATM   25  C           1     176.724 186.428 276.957  0.00  0.00     0.001 A 
HETATM   26  C           1     176.960 185.455 275.986  0.00  0.00     0.000 A 
HETATM   27  C           1     175.889 184.857 275.322  0.00  0.00     0.001 A 
HETATM   28  C           1     174.581 185.233 275.630  0.00  0.00     0.008 A 
ENDBRANCH  22  23
ENDBRANCH  21  22
ENDBRANCH   5  21
BRANCH   1  29
HETATM   29  C           1     171.398 190.433 281.656  0.00  0.00    -0.025 A 
HETATM   30  C           1     170.405 190.411 282.635  0.00  0.00     0.012 A 
HETATM   31  C           1     170.154 191.551 283.399  0.00  0.00     0.001 A 
HETATM   32  C           1     170.896 192.712 283.183  0.00  0.00     0.000 A 
HETATM   33  C           1     171.889 192.734 282.203  0.00  0.00     0.001 A 
HETATM   34  C           1     172.140 191.594 281.439  0.00  0.00     0.012 A 
ENDBRANCH   1  29
TORSDOF 10
ENDMDL
MODEL 3
REMARK VINA RESULT:      -7.0      7.875     12.050
REMARK  10 active torsions:
REMARK  status: ('A' for Active; 'I' for Inactive)
REMARK    1  A    between atoms: C_1  and  C_20 
REMARK    2  A    between atoms: C_5  and  S_26 
REMARK    3  A    between atoms: C_6  and  C_8 
REMARK    4  A    between atoms: C_8  and  N_9 
REMARK    5  A    between atoms: N_9  and  C_10 
REMARK    6  A    between atoms: C_10  and  C_11 
REMARK    7  A    between atoms: C_11  and  C_12 
REMARK    8  A    between atoms: N_15  and  C_18 
REMARK    9  A    between atoms: S_26  and  C_33 
REMARK   10  A    between atoms: C_27  and  C_33 
ROOT
HETATM    1  C           1     172.744 189.394 281.888  0.00  0.00    -0.010 A 
HETATM    2  C           1     173.740 189.404 282.853  0.00  0.00     0.101 A 
HETATM    3  N           1     174.608 188.388 283.048  0.00  0.00    -0.359 N 
ATOM      4  HN          1     175.329 188.430 283.769  1.00  0.00     0.166 HD
HETATM    5  C           1     174.474 187.313 282.239  0.00  0.00     0.077 A 
HETATM    6  C           1     173.512 187.211 281.248  0.00  0.00     0.004 A 
HETATM    7  C           1     172.631 188.273 281.072  0.00  0.00     0.025 A 
ENDROOT
BRANCH   6   8
HETATM    8  C           1     173.421 185.988 280.389  0.00  0.00     0.307 C 
BRANCH   8   9
HETATM    9  N           1     172.143 185.958 279.729  0.00  0.00     0.087 N 
HETATM   10  H           1     171.477 185.441 280.303  0.00  0.00     0.316 HD
BRANCH   9  11
HETATM   11  C           1     172.316 185.283 278.471  0.00  0.00     0.270 C 
BRANCH  11  12
HETATM   12  C           1     172.634 186.303 277.386  0.00  0.00     0.034 C 
BRANCH  12  13
HETATM   13  C           1     173.962 185.950 276.728  0.00  0.00    -0.010 C 
HETATM   14  C           1     173.709 185.532 275.283  0.00  0.00     0.035 C 
HETATM   15  C           1     175.021 185.354 274.522  0.00  0.00     0.272 C 
HETATM   16  N           1     175.845 186.562 274.584  0.00  0.00     0.088 N 
HETATM   17  C           1     176.156 186.926 275.967  0.00  0.00     0.272 C 
HETATM   18  C           1     174.886 187.161 276.782  0.00  0.00     0.035 C 
BRANCH  16  19
HETATM   19  C           1     177.083 186.232 273.929  0.00  0.00     0.268 C 
HETATM   20  C           1     178.219 186.273 274.942  0.00  0.00     0.037 C 
ENDBRANCH  16  19
ENDBRANCH  12  13
ENDBRANCH  11  12
ENDBRANCH   9  11
ENDBRANCH   8   9
ENDBRANCH   6   8
BRANCH   5  21
HETATM   21  S           1     175.621 185.925 282.465  0.00  0.00    -0.107 SA
BRANCH  21  22
HETATM   22  C           1     174.306 184.739 282.865  0.00  0.00     0.122 C 
BRANCH  22  23
HETATM   23  C           1     173.896 184.910 284.294  0.00  0.00    -0.049 A 
HETATM   24  C           1     174.845 184.794 285.311  0.00  0.00     0.008 A 
HETATM   25  C           1     174.463 184.953 286.642  0.00  0.00     0.001 A 
HETATM   26  C           1     173.132 185.226 286.959  0.00  0.00     0.000 A 
HETATM   27  C           1     172.183 185.342 285.942  0.00  0.00     0.001 A 
HETATM   28  C           1     172.566 185.183 284.610  0.00  0.00     0.008 A 
ENDBRANCH  22  23
ENDBRANCH  21  22
ENDBRANCH   5  21
BRANCH   1  29
HETATM   29  C           1     171.915 190.433 281.747  0.00  0.00    -0.025 A 
HETATM   30  C           1     171.667 191.279 282.828  0.00  0.00     0.012 A 
HETATM   31  C           1     170.802 192.363 282.681  0.00  0.00     0.001 A 
HETATM   32  C           1     170.185 192.600 281.453  0.00  0.00     0.000 A 
HETATM   33  C           1     170.433 191.754 280.372  0.00  0.00     0.001 A 
HETATM   34  C           1     171.298 190.670 280.519  0.00  0.00     0.012 A 
ENDBRANCH   1  29
TORSDOF 10
ENDMDL
MODEL 4
REMARK VINA RESULT:      -7.0      2.010      6.099
REMARK  10 active torsions:
REMARK  status: ('A' for Active; 'I' for Inactive)
REMARK    1  A    between atoms: C_1  and  C_20 
REMARK    2  A    between atoms: C_5  and  S_26 
REMARK    3  A    between atoms: C_6  and  C_8 
REMARK    4  A    between atoms: C_8  and  N_9 
REMARK    5  A    between atoms: N_9  and  C_10 
REMARK    6  A    between atoms: C_10  and  C_11 
REMARK    7  A    between atoms: C_11  and  C_12 
REMARK    8  A    between atoms: N_15  and  C_18 
REMARK    9  A    between atoms: S_26  and  C_33 
REMARK   10  A    between atoms: C_27  and  C_33 
ROOT
HETATM    1  C           1     174.330 189.748 269.618  0.00  0.00    -0.010 A 
HETATM    2  C           1     174.907 189.723 268.358  0.00  0.00     0.101 A 
HETATM    3  N           1     174.991 188.614 267.592  0.00  0.00    -0.359 N 
ATOM      4  HN          1     175.424 188.633 266.668  1.00  0.00     0.166 HD
HETATM    5  C           1     174.473 187.479 268.111  0.00  0.00     0.077 A 
HETATM    6  C           1     173.878 187.404 269.359  0.00  0.00     0.004 A 
HETATM    7  C           1     173.807 188.563 270.125  0.00  0.00     0.025 A 
ENDROOT
BRANCH   6   8
HETATM    8  C           1     173.325 186.111 269.871  0.00  0.00     0.307 C 
BRANCH   8   9
HETATM    9  N           1     172.405 186.372 270.944  0.00  0.00     0.087 N 
HETATM   10  H           1     172.503 187.341 271.247  0.00  0.00     0.316 HD
BRANCH   9  11
HETATM   11  C           1     172.740 185.494 272.032  0.00  0.00     0.270 C 
BRANCH  11  12
HETATM   12  C           1     174.024 184.745 271.705  0.00  0.00     0.034 C 
BRANCH  12  13
HETATM   13  C           1     175.018 184.912 272.847  0.00  0.00    -0.010 C 
HETATM   14  C           1     176.059 185.957 272.456  0.00  0.00     0.035 C 
HETATM   15  C           1     176.963 186.303 273.637  0.00  0.00     0.272 C 
HETATM   16  N           1     176.187 186.742 274.798  0.00  0.00     0.088 N 
HETATM   17  C           1     175.238 185.713 275.226  0.00  0.00     0.272 C 
HETATM   18  C           1     174.270 185.344 274.103  0.00  0.00     0.035 C 
BRANCH  16  19
HETATM   19  C           1     177.135 186.932 275.862  0.00  0.00     0.268 C 
HETATM   20  C           1     177.730 185.588 276.258  0.00  0.00     0.037 C 
ENDBRANCH  16  19
ENDBRANCH  12  13
ENDBRANCH  11  12
ENDBRANCH   9  11
ENDBRANCH   8   9
ENDBRANCH   6   8
BRANCH   5  21
HETATM   21  S           1     174.564 185.965 267.114  0.00  0.00    -0.107 SA
BRANCH  21  22
HETATM   22  C           1     176.240 185.547 267.671  0.00  0.00     0.122 C 
BRANCH  22  23
HETATM   23  C           1     176.201 184.283 268.470  0.00  0.00    -0.049 A 
HETATM   24  C           1     175.326 183.257 268.111  0.00  0.00     0.008 A 
HETATM   25  C           1     175.290 182.079 268.856  0.00  0.00     0.001 A 
HETATM   26  C           1     176.127 181.926 269.961  0.00  0.00     0.000 A 
HETATM   27  C           1     177.003 182.951 270.320  0.00  0.00     0.001 A 
HETATM   28  C           1     177.039 184.129 269.574  0.00  0.00     0.008 A 
ENDBRANCH  22  23
ENDBRANCH  21  22
ENDBRANCH   5  21
BRANCH   1  29
HETATM   29  C           1     174.279 190.880 270.328  0.00  0.00    -0.025 A 
HETATM   30  C           1     175.452 191.583 270.604  0.00  0.00     0.012 A 
HETATM   31  C           1     175.399 192.765 271.344  0.00  0.00     0.001 A 
HETATM   32  C           1     174.174 193.242 271.807  0.00  0.00     0.000 A 
HETATM   33  C           1     173.001 192.539 271.531  0.00  0.00     0.001 A 
HETATM   34  C           1     173.054 191.358 270.791  0.00  0.00     0.012 A 
ENDBRANCH   1  29
TORSDOF 10
ENDMDL
MODEL 5
REMARK VINA RESULT:      -7.0      2.023      3.570
REMARK  10 active torsions:
REMARK  status: ('A' for Active; 'I' for Inactive)
REMARK    1  A    between atoms: C_1  and  C_20 
REMARK    2  A    between atoms: C_5  and  S_26 
REMARK    3  A    between atoms: C_6  and  C_8 
REMARK    4  A    between atoms: C_8  and  N_9 
REMARK    5  A    between atoms: N_9  and  C_10 
REMARK    6  A    between atoms: C_10  and  C_11 
REMARK    7  A    between atoms: C_11  and  C_12 
REMARK    8  A    between atoms: N_15  and  C_18 
REMARK    9  A    between atoms: S_26  and  C_33 
REMARK   10  A    between atoms: C_27  and  C_33 
ROOT
HETATM    1  C           1     175.933 185.964 272.442  0.00  0.00    -0.010 A 
HETATM    2  C           1     175.546 187.198 271.946  0.00  0.00     0.101 A 
HETATM    3  N           1     175.150 187.406 270.671  0.00  0.00    -0.359 N 
ATOM      4  HN          1     174.872 188.330 270.340  1.00  0.00     0.166 HD
HETATM    5  C           1     175.142 186.327 269.857  0.00  0.00     0.077 A 
HETATM    6  C           1     175.511 185.055 270.260  0.00  0.00     0.004 A 
HETATM    7  C           1     175.914 184.873 271.579  0.00  0.00     0.025 A 
ENDROOT
BRANCH   6   8
HETATM    8  C           1     175.478 183.906 269.302  0.00  0.00     0.307 C 
BRANCH   8   9
HETATM    9  N           1     174.741 182.816 269.884  0.00  0.00     0.087 N 
HETATM   10  H           1     175.039 181.939 269.456  0.00  0.00     0.316 HD
BRANCH   9  11
HETATM   11  C           1     173.347 183.034 269.610  0.00  0.00     0.270 C 
BRANCH  11  12
HETATM   12  C           1     172.581 183.140 270.922  0.00  0.00     0.034 C 
BRANCH  12  13
HETATM   13  C           1     171.685 184.371 270.891  0.00  0.00    -0.010 C 
HETATM   14  C           1     172.245 185.422 271.845  0.00  0.00     0.035 C 
HETATM   15  C           1     171.497 186.746 271.708  0.00  0.00     0.272 C 
HETATM   16  N           1     171.508 187.230 270.327  0.00  0.00     0.088 N 
HETATM   17  C           1     170.902 186.257 269.415  0.00  0.00     0.272 C 
HETATM   18  C           1     171.628 184.915 269.468  0.00  0.00     0.035 C 
BRANCH  16  19
HETATM   19  C           1     170.689 188.412 270.312  0.00  0.00     0.268 C 
HETATM   20  C           1     169.223 188.013 270.219  0.00  0.00     0.037 C 
ENDBRANCH  16  19
ENDBRANCH  12  13
ENDBRANCH  11  12
ENDBRANCH   9  11
ENDBRANCH   8   9
ENDBRANCH   6   8
BRANCH   5  21
HETATM   21  S           1     174.616 186.561 268.136  0.00  0.00    -0.107 SA
BRANCH  21  22
HETATM   22  C           1     174.697 188.372 268.223  0.00  0.00     0.122 C 
BRANCH  22  23
HETATM   23  C           1     173.413 188.955 267.723  0.00  0.00    -0.049 A 
HETATM   24  C           1     172.551 188.181 266.947  0.00  0.00     0.008 A 
HETATM   25  C           1     171.354 188.724 266.481  0.00  0.00     0.001 A 
HETATM   26  C           1     171.019 190.042 266.789  0.00  0.00     0.000 A 
HETATM   27  C           1     171.881 190.817 267.565  0.00  0.00     0.001 A 
HETATM   28  C           1     173.079 190.273 268.031  0.00  0.00     0.008 A 
ENDBRANCH  22  23
ENDBRANCH  21  22
ENDBRANCH   5  21
BRANCH   1  29
HETATM   29  C           1     176.316 185.825 273.716  0.00  0.00    -0.025 A 
HETATM   30  C           1     175.476 185.191 274.631  0.00  0.00     0.012 A 
HETATM   31  C           1     175.874 185.045 275.960  0.00  0.00     0.001 A 
HETATM   32  C           1     177.113 185.536 276.373  0.00  0.00     0.000 A 
HETATM   33  C           1     177.953 186.171 275.458  0.00  0.00     0.001 A 
HETATM   34  C           1     177.554 186.316 274.129  0.00  0.00     0.012 A 
ENDBRANCH   1  29
TORSDOF 10
ENDMDL
MODEL 6
REMARK VINA RESULT:      -6.9      3.447      6.667
REMARK  10 active torsions:
REMARK  status: ('A' for Active; 'I' for Inactive)
REMARK    1  A    between atoms: C_1  and  C_20 
REMARK    2  A    between atoms: C_5  and  S_26 
REMARK    3  A    between atoms: C_6  and  C_8 
REMARK    4  A    between atoms: C_8  and  N_9 
REMARK    5  A    between atoms: N_9  and  C_10 
REMARK    6  A    between atoms: C_10  and  C_11 
REMARK    7  A    between atoms: C_11  and  C_12 
REMARK    8  A    between atoms: N_15  and  C_18 
REMARK    9  A    between atoms: S_26  and  C_33 
REMARK   10  A    between atoms: C_27  and  C_33 
ROOT
HETATM    1  C           1     175.577 185.658 272.530  0.00  0.00    -0.010 A 
HETATM    2  C           1     174.497 186.470 272.223  0.00  0.00     0.101 A 
HETATM    3  N           1     173.900 186.500 271.011  0.00  0.00    -0.359 N 
ATOM      4  HN          1     173.106 187.111 270.820  1.00  0.00     0.166 HD
HETATM    5  C           1     174.408 185.678 270.066  0.00  0.00     0.077 A 
HETATM    6  C           1     175.484 184.832 270.278  0.00  0.00     0.004 A 
HETATM    7  C           1     176.078 184.824 271.536  0.00  0.00     0.025 A 
ENDROOT
BRANCH   6   8
HETATM    8  C           1     175.994 183.949 269.182  0.00  0.00     0.307 C 
BRANCH   8   9
HETATM    9  N           1     177.416 184.120 269.049  0.00  0.00     0.087 N 
HETATM   10  H           1     177.741 184.801 269.736  0.00  0.00     0.316 HD
BRANCH   9  11
HETATM   11  C           1     177.675 184.616 267.725  0.00  0.00     0.270 C 
BRANCH  11  12
HETATM   12  C           1     176.626 184.072 266.764  0.00  0.00     0.034 C 
BRANCH  12  13
HETATM   13  C           1     177.288 183.700 265.444  0.00  0.00    -0.010 C 
HETATM   14  C           1     177.460 182.186 265.380  0.00  0.00     0.035 C 
HETATM   15  C           1     177.941 181.742 263.999  0.00  0.00     0.272 C 
HETATM   16  N           1     177.047 182.216 262.942  0.00  0.00     0.088 N 
HETATM   17  C           1     176.937 183.676 262.949  0.00  0.00     0.272 C 
HETATM   18  C           1     176.419 184.190 264.291  0.00  0.00     0.035 C 
BRANCH  16  19
HETATM   19  C           1     177.660 181.830 261.700  0.00  0.00     0.268 C 
HETATM   20  C           1     179.081 182.374 261.645  0.00  0.00     0.037 C 
ENDBRANCH  16  19
ENDBRANCH  12  13
ENDBRANCH  11  12
ENDBRANCH   9  11
ENDBRANCH   8   9
ENDBRANCH   6   8
BRANCH   5  21
HETATM   21  S           1     173.635 185.685 268.424  0.00  0.00    -0.107 SA
BRANCH  21  22
HETATM   22  C           1     174.455 187.219 267.905  0.00  0.00     0.122 C 
BRANCH  22  23
HETATM   23  C           1     173.423 188.249 267.571  0.00  0.00    -0.049 A 
HETATM   24  C           1     172.279 187.886 266.860  0.00  0.00     0.008 A 
HETATM   25  C           1     171.317 188.847 266.549  0.00  0.00     0.001 A 
HETATM   26  C           1     171.498 190.171 266.947  0.00  0.00     0.000 A 
HETATM   27  C           1     172.642 190.535 267.658  0.00  0.00     0.001 A 
HETATM   28  C           1     173.605 189.574 267.969  0.00  0.00     0.008 A 
ENDBRANCH  22  23
ENDBRANCH  21  22
ENDBRANCH   5  21
BRANCH   1  29
HETATM   29  C           1     176.124 185.676 273.750  0.00  0.00    -0.025 A 
HETATM   30  C           1     175.470 185.060 274.817  0.00  0.00     0.012 A 
HETATM   31  C           1     176.041 185.079 276.090  0.00  0.00     0.001 A 
HETATM   32  C           1     177.265 185.714 276.295  0.00  0.00     0.000 A 
HETATM   33  C           1     177.919 186.331 275.229  0.00  0.00     0.001 A 
HETATM   34  C           1     177.349 186.312 273.956  0.00  0.00     0.012 A 
ENDBRANCH   1  29
TORSDOF 10
ENDMDL
MODEL 7
REMARK VINA RESULT:      -6.9      1.935      3.603
REMARK  10 active torsions:
REMARK  status: ('A' for Active; 'I' for Inactive)
REMARK    1  A    between atoms: C_1  and  C_20 
REMARK    2  A    between atoms: C_5  and  S_26 
REMARK    3  A    between atoms: C_6  and  C_8 
REMARK    4  A    between atoms: C_8  and  N_9 
REMARK    5  A    between atoms: N_9  and  C_10 
REMARK    6  A    between atoms: C_10  and  C_11 
REMARK    7  A    between atoms: C_11  and  C_12 
REMARK    8  A    between atoms: N_15  and  C_18 
REMARK    9  A    between atoms: S_26  and  C_33 
REMARK   10  A    between atoms: C_27  and  C_33 
ROOT
HETATM    1  C           1     175.522 185.504 272.425  0.00  0.00    -0.010 A 
HETATM    2  C           1     176.150 184.856 271.374  0.00  0.00     0.101 A 
HETATM    3  N           1     175.624 184.750 270.134  0.00  0.00    -0.359 N 
ATOM      4  HN          1     176.115 184.264 269.383  1.00  0.00     0.166 HD
HETATM    5  C           1     174.414 185.319 269.940  0.00  0.00     0.077 A 
HETATM    6  C           1     173.709 185.987 270.927  0.00  0.00     0.004 A 
HETATM    7  C           1     174.277 186.080 272.194  0.00  0.00     0.025 A 
ENDROOT
BRANCH   6   8
HETATM    8  C           1     172.371 186.594 270.640  0.00  0.00     0.307 C 
BRANCH   8   9
HETATM    9  N           1     172.465 188.026 270.723  0.00  0.00     0.087 N 
HETATM   10  H           1     173.428 188.292 270.927  0.00  0.00     0.316 HD
BRANCH   9  11
HETATM   11  C           1     171.611 188.459 271.796  0.00  0.00     0.270 C 
BRANCH  11  12
HETATM   12  C           1     172.417 189.295 272.782  0.00  0.00     0.034 C 
BRANCH  12  13
HETATM   13  C           1     172.185 188.779 274.196  0.00  0.00    -0.010 C 
HETATM   14  C           1     171.126 187.681 274.161  0.00  0.00     0.035 C 
HETATM   15  C           1     170.995 186.997 275.520  0.00  0.00     0.272 C 
HETATM   16  N           1     172.280 186.474 275.985  0.00  0.00     0.088 N 
HETATM   17  C           1     173.282 187.537 276.094  0.00  0.00     0.272 C 
HETATM   18  C           1     173.497 188.241 274.756  0.00  0.00     0.035 C 
BRANCH  16  19
HETATM   19  C           1     172.046 185.957 277.306  0.00  0.00     0.268 C 
HETATM   20  C           1     173.314 186.096 278.138  0.00  0.00     0.037 C 
ENDBRANCH  16  19
ENDBRANCH  12  13
ENDBRANCH  11  12
ENDBRANCH   9  11
ENDBRANCH   8   9
ENDBRANCH   6   8
BRANCH   5  21
HETATM   21  S           1     173.670 185.201 268.288  0.00  0.00    -0.107 SA
BRANCH  21  22
HETATM   22  C           1     174.785 186.435 267.559  0.00  0.00     0.122 C 
BRANCH  22  23
HETATM   23  C           1     174.113 187.772 267.551  0.00  0.00    -0.049 A 
HETATM   24  C           1     174.777 188.890 268.057  0.00  0.00     0.008 A 
HETATM   25  C           1     174.152 190.136 268.050  0.00  0.00     0.001 A 
HETATM   26  C           1     172.861 190.265 267.538  0.00  0.00     0.000 A 
HETATM   27  C           1     172.196 189.148 267.032  0.00  0.00     0.001 A 
HETATM   28  C           1     172.822 187.902 267.040  0.00  0.00     0.008 A 
ENDBRANCH  22  23
ENDBRANCH  21  22
ENDBRANCH   5  21
BRANCH   1  29
HETATM   29  C           1     176.097 185.574 273.631  0.00  0.00    -0.025 A 
HETATM   30  C           1     177.300 186.262 273.791  0.00  0.00     0.012 A 
HETATM   31  C           1     177.899 186.335 275.048  0.00  0.00     0.001 A 
HETATM   32  C           1     177.297 185.719 276.144  0.00  0.00     0.000 A 
HETATM   33  C           1     176.094 185.031 275.984  0.00  0.00     0.001 A 
HETATM   34  C           1     175.494 184.958 274.727  0.00  0.00     0.012 A 
ENDBRANCH   1  29
TORSDOF 10
ENDMDL
MODEL 8
REMARK VINA RESULT:      -6.8      5.405      9.290
REMARK  10 active torsions:
REMARK  status: ('A' for Active; 'I' for Inactive)
REMARK    1  A    between atoms: C_1  and  C_20 
REMARK    2  A    between atoms: C_5  and  S_26 
REMARK    3  A    between atoms: C_6  and  C_8 
REMARK    4  A    between atoms: C_8  and  N_9 
REMARK    5  A    between atoms: N_9  and  C_10 
REMARK    6  A    between atoms: C_10  and  C_11 
REMARK    7  A    between atoms: C_11  and  C_12 
REMARK    8  A    between atoms: N_15  and  C_18 
REMARK    9  A    between atoms: S_26  and  C_33 
REMARK   10  A    between atoms: C_27  and  C_33 
ROOT
HETATM    1  C           1     174.723 186.114 276.457  0.00  0.00    -0.010 A 
HETATM    2  C           1     175.483 186.782 277.404  0.00  0.00     0.101 A 
HETATM    3  N           1     175.064 187.037 278.662  0.00  0.00    -0.359 N 
ATOM      4  HN          1     175.652 187.532 279.333  1.00  0.00     0.166 HD
HETATM    5  C           1     173.827 186.601 278.987  0.00  0.00     0.077 A 
HETATM    6  C           1     172.993 185.925 278.111  0.00  0.00     0.004 A 
HETATM    7  C           1     173.453 185.679 276.822  0.00  0.00     0.025 A 
ENDROOT
BRANCH   6   8
HETATM    8  C           1     171.633 185.472 278.541  0.00  0.00     0.307 C 
BRANCH   8   9
HETATM    9  N           1     170.693 185.695 277.475  0.00  0.00     0.087 N 
HETATM   10  H           1     171.165 185.584 276.578  0.00  0.00     0.316 HD
BRANCH   9  11
HETATM   11  C           1     170.207 187.043 277.596  0.00  0.00     0.270 C 
BRANCH  11  12
HETATM   12  C           1     169.872 187.589 276.214  0.00  0.00     0.034 C 
BRANCH  12  13
HETATM   13  C           1     171.088 187.458 275.306  0.00  0.00    -0.010 C 
HETATM   14  C           1     170.619 187.228 273.873  0.00  0.00     0.035 C 
HETATM   15  C           1     171.790 187.283 272.893  0.00  0.00     0.272 C 
HETATM   16  N           1     172.529 188.541 273.010  0.00  0.00     0.088 N 
HETATM   17  C           1     173.048 188.732 274.365  0.00  0.00     0.272 C 
HETATM   18  C           1     171.923 188.730 275.399  0.00  0.00     0.035 C 
BRANCH  16  19
HETATM   19  C           1     173.655 188.425 272.123  0.00  0.00     0.268 C 
HETATM   20  C           1     173.303 187.489 270.975  0.00  0.00     0.037 C 
ENDBRANCH  16  19
ENDBRANCH  12  13
ENDBRANCH  11  12
ENDBRANCH   9  11
ENDBRANCH   8   9
ENDBRANCH   6   8
BRANCH   5  21
HETATM   21  S           1     173.223 186.920 280.669  0.00  0.00    -0.107 SA
BRANCH  21  22
HETATM   22  C           1     173.987 185.426 281.363  0.00  0.00     0.122 C 
BRANCH  22  23
HETATM   23  C           1     173.819 185.423 282.849  0.00  0.00    -0.049 A 
HETATM   24  C           1     172.658 185.943 283.421  0.00  0.00     0.008 A 
HETATM   25  C           1     172.500 185.941 284.807  0.00  0.00     0.001 A 
HETATM   26  C           1     173.505 185.419 285.622  0.00  0.00     0.000 A 
HETATM   27  C           1     174.667 184.899 285.051  0.00  0.00     0.001 A 
HETATM   28  C           1     174.823 184.902 283.664  0.00  0.00     0.008 A 
ENDBRANCH  22  23
ENDBRANCH  21  22
ENDBRANCH   5  21
BRANCH   1  29
HETATM   29  C           1     175.197 185.895 275.226  0.00  0.00    -0.025 A 
HETATM   30  C           1     174.444 185.161 274.310  0.00  0.00     0.012 A 
HETATM   31  C           1     174.938 184.933 273.025  0.00  0.00     0.001 A 
HETATM   32  C           1     176.185 185.437 272.658  0.00  0.00     0.000 A 
HETATM   33  C           1     176.938 186.171 273.575  0.00  0.00     0.001 A 
HETATM   34  C           1     176.444 186.399 274.859  0.00  0.00     0.012 A 
ENDBRANCH   1  29
TORSDOF 10
ENDMDL
MODEL 9
REMARK VINA RESULT:      -6.6      2.054      3.394
REMARK  10 active torsions:
REMARK  status: ('A' for Active; 'I' for Inactive)
REMARK    1  A    between atoms: C_1  and  C_20 
REMARK    2  A    between atoms: C_5  and  S_26 
REMARK    3  A    between atoms: C_6  and  C_8 
REMARK    4  A    between atoms: C_8  and  N_9 
REMARK    5  A    between atoms: N_9  and  C_10 
REMARK    6  A    between atoms: C_10  and  C_11 
REMARK    7  A    between atoms: C_11  and  C_12 
REMARK    8  A    between atoms: N_15  and  C_18 
REMARK    9  A    between atoms: S_26  and  C_33 
REMARK   10  A    between atoms: C_27  and  C_33 
ROOT
HETATM    1  C           1     175.820 186.299 272.486  0.00  0.00    -0.010 A 
HETATM    2  C           1     175.458 185.312 271.582  0.00  0.00     0.101 A 
HETATM    3  N           1     175.046 185.562 270.320  0.00  0.00    -0.359 N 
ATOM      4  HN          1     174.787 184.810 269.682  1.00  0.00     0.166 HD
HETATM    5  C           1     174.994 186.861 269.947  0.00  0.00     0.077 A 
HETATM    6  C           1     175.335 187.915 270.778  0.00  0.00     0.004 A 
HETATM    7  C           1     175.755 187.625 272.071  0.00  0.00     0.025 A 
ENDROOT
BRANCH   6   8
HETATM    8  C           1     175.253 189.330 270.296  0.00  0.00     0.307 C 
BRANCH   8   9
HETATM    9  N           1     176.220 190.133 270.995  0.00  0.00     0.087 N 
HETATM   10  H           1     176.149 189.953 271.997  0.00  0.00     0.316 HD
BRANCH   9  11
HETATM   11  C           1     175.914 191.513 270.733  0.00  0.00     0.270 C 
BRANCH  11  12
HETATM   12  C           1     174.412 191.674 270.541  0.00  0.00     0.034 C 
BRANCH  12  13
HETATM   13  C           1     173.811 192.349 271.766  0.00  0.00    -0.010 C 
HETATM   14  C           1     172.754 193.353 271.317  0.00  0.00     0.035 C 
HETATM   15  C           1     171.985 193.917 272.510  0.00  0.00     0.272 C 
HETATM   16  N           1     171.389 192.851 273.317  0.00  0.00     0.088 N 
HETATM   17  C           1     172.409 191.926 273.816  0.00  0.00     0.272 C 
HETATM   18  C           1     173.193 191.289 272.671  0.00  0.00     0.035 C 
BRANCH  16  19
HETATM   19  C           1     170.793 193.499 274.454  0.00  0.00     0.268 C 
HETATM   20  C           1     171.444 192.985 275.731  0.00  0.00     0.037 C 
ENDBRANCH  16  19
ENDBRANCH  12  13
ENDBRANCH  11  12
ENDBRANCH   9  11
ENDBRANCH   8   9
ENDBRANCH   6   8
BRANCH   5  21
HETATM   21  S           1     174.447 187.242 268.259  0.00  0.00    -0.107 SA
BRANCH  21  22
HETATM   22  C           1     172.687 187.285 268.704  0.00  0.00     0.122 C 
BRANCH  22  23
HETATM   23  C           1     172.185 188.692 268.622  0.00  0.00    -0.049 A 
HETATM   24  C           1     172.444 189.461 267.488  0.00  0.00     0.008 A 
HETATM   25  C           1     171.977 190.773 267.413  0.00  0.00     0.001 A 
HETATM   26  C           1     171.251 191.317 268.472  0.00  0.00     0.000 A 
HETATM   27  C           1     170.992 190.548 269.607  0.00  0.00     0.001 A 
HETATM   28  C           1     171.460 189.236 269.682  0.00  0.00     0.008 A 
ENDBRANCH  22  23
ENDBRANCH  21  22
ENDBRANCH   5  21
BRANCH   1  29
HETATM   29  C           1     176.219 185.984 273.722  0.00  0.00    -0.025 A 
HETATM   30  C           1     177.481 186.377 274.169  0.00  0.00     0.012 A 
HETATM   31  C           1     177.897 186.049 275.459  0.00  0.00     0.001 A 
HETATM   32  C           1     177.052 185.328 276.302  0.00  0.00     0.000 A 
HETATM   33  C           1     175.790 184.936 275.856  0.00  0.00     0.001 A 
HETATM   34  C           1     175.373 185.263 274.566  0.00  0.00     0.012 A 
ENDBRANCH   1  29
TORSDOF 10
ENDMDL
