MODEL 1
REMARK VINA RESULT:      -8.5      0.000      0.000
REMARK  9 active torsions:
REMARK  status: ('A' for Active; 'I' for Inactive)
REMARK    1  A    between atoms: C_4  and  S_22 
REMARK    2  A    between atoms: C_5  and  C_7 
REMARK    3  A    between atoms: C_7  and  N_8 
REMARK    4  A    between atoms: N_8  and  C_9 
REMARK    5  A    between atoms: C_9  and  C_10 
REMARK    6  A    between atoms: C_10  and  C_11 
REMARK    7  A    between atoms: N_14  and  C_17 
REMARK    8  A    between atoms: S_22  and  C_29 
REMARK    9  A    between atoms: C_23  and  C_29 
ROOT
HETATM    1  C           1     175.220 187.091 281.008  0.00  0.00     0.311 C 
ENDROOT
BRANCH   1   2
HETATM    2  C           1     173.987 187.940 281.000  0.00  0.00     0.005 A 
HETATM    3  C           1     172.865 187.557 280.282  0.00  0.00     0.101 A 
HETATM    4  N           1     171.722 188.276 280.233  0.00  0.00    -0.254 NA
HETATM    5  C           1     171.703 189.430 280.936  0.00  0.00     0.118 A 
HETATM    6  C           1     172.773 189.895 281.683  0.00  0.00     0.020 A 
HETATM    7  C           1     173.936 189.133 281.714  0.00  0.00     0.013 A 
BRANCH   3   8
HETATM    8  S           1     172.935 186.000 279.353  0.00  0.00    -0.105 SA
BRANCH   8   9
HETATM    9  C           1     173.044 186.821 277.737  0.00  0.00     0.119 C 
BRANCH   9  10
HETATM   10  C           1     174.265 186.343 277.016  0.00  0.00    -0.049 A 
HETATM   11  C           1     174.149 185.382 276.010  0.00  0.00     0.008 A 
HETATM   12  C           1     175.288 184.937 275.338  0.00  0.00     0.001 A 
HETATM   13  C           1     176.541 185.450 275.671  0.00  0.00     0.000 A 
HETATM   14  C           1     176.656 186.410 276.678  0.00  0.00     0.001 A 
HETATM   15  C           1     175.519 186.855 277.349  0.00  0.00     0.008 A 
ENDBRANCH   9  10
ENDBRANCH   8   9
ENDBRANCH   3   8
ENDBRANCH   1   2
BRANCH   1  16
HETATM   16  N           1     175.699 186.955 282.357  0.00  0.00     0.087 N 
HETATM   17  H           1     176.557 187.495 282.469  0.00  0.00     0.316 HD
BRANCH  16  18
HETATM   18  C           1     175.977 185.561 282.583  0.00  0.00     0.270 C 
BRANCH  18  19
HETATM   19  C           1     174.714 184.864 283.069  0.00  0.00     0.034 C 
BRANCH  19  20
HETATM   20  C           1     174.275 185.473 284.394  0.00  0.00    -0.010 C 
HETATM   21  C           1     172.751 185.502 284.452  0.00  0.00     0.035 C 
HETATM   22  C           1     172.257 185.923 285.834  0.00  0.00     0.273 C 
HETATM   23  N           1     172.807 185.062 286.884  0.00  0.00     0.093 N 
HETATM   24  C           1     174.270 185.088 286.885  0.00  0.00     0.273 C 
HETATM   25  C           1     174.837 184.637 285.540  0.00  0.00     0.035 C 
BRANCH  23  26
HETATM   26  C           1     172.359 185.622 288.130  0.00  0.00     0.223 C 
HETATM   27  C           1     173.491 185.668 289.144  0.00  0.00     0.036 C 
HETATM   28  C           1     173.179 186.856 290.054  0.00  0.00     0.002 C 
HETATM   29  C           1     172.037 187.619 289.385  0.00  0.00     0.002 C 
HETATM   30  C           1     171.978 187.083 287.963  0.00  0.00     0.036 C 
ENDBRANCH  23  26
ENDBRANCH  19  20
ENDBRANCH  18  19
ENDBRANCH  16  18
ENDBRANCH   1  16
TORSDOF 9
ENDMDL
MODEL 2
REMARK VINA RESULT:      -7.9      1.236      1.668
REMARK  9 active torsions:
REMARK  status: ('A' for Active; 'I' for Inactive)
REMARK    1  A    between atoms: C_4  and  S_22 
REMARK    2  A    between atoms: C_5  and  C_7 
REMARK    3  A    between atoms: C_7  and  N_8 
REMARK    4  A    between atoms: N_8  and  C_9 
REMARK    5  A    between atoms: C_9  and  C_10 
REMARK    6  A    between atoms: C_10  and  C_11 
REMARK    7  A    between atoms: N_14  and  C_17 
REMARK    8  A    between atoms: S_22  and  C_29 
REMARK    9  A    between atoms: C_23  and  C_29 
ROOT
HETATM    1  C           1     173.803 185.698 280.883  0.00  0.00     0.311 C 
ENDROOT
BRANCH   1   2
HETATM    2  C           1     172.904 186.864 280.611  0.00  0.00     0.005 A 
HETATM    3  C           1     172.075 186.879 279.502  0.00  0.00     0.101 A 
HETATM    4  N           1     171.241 187.899 279.199  0.00  0.00    -0.254 NA
HETATM    5  C           1     171.240 188.950 280.049  0.00  0.00     0.118 A 
HETATM    6  C           1     172.032 189.027 281.182  0.00  0.00     0.020 A 
HETATM    7  C           1     172.879 187.961 281.467  0.00  0.00     0.013 A 
BRANCH   3   8
HETATM    8  S           1     172.110 185.446 278.389  0.00  0.00    -0.105 SA
BRANCH   8   9
HETATM    9  C           1     172.584 186.426 276.935  0.00  0.00     0.119 C 
BRANCH   9  10
HETATM   10  C           1     174.011 186.140 276.585  0.00  0.00    -0.049 A 
HETATM   11  C           1     174.310 185.299 275.512  0.00  0.00     0.008 A 
HETATM   12  C           1     175.640 185.034 275.185  0.00  0.00     0.001 A 
HETATM   13  C           1     176.670 185.606 275.930  0.00  0.00     0.000 A 
HETATM   14  C           1     176.370 186.446 277.004  0.00  0.00     0.001 A 
HETATM   15  C           1     175.041 186.713 277.330  0.00  0.00     0.008 A 
ENDBRANCH   9  10
ENDBRANCH   8   9
ENDBRANCH   3   8
ENDBRANCH   1   2
BRANCH   1  16
HETATM   16  N           1     173.353 185.010 282.063  0.00  0.00     0.087 N 
HETATM   17  H           1     172.794 185.644 282.633  0.00  0.00     0.316 HD
BRANCH  16  18
HETATM   18  C           1     174.518 184.602 282.802  0.00  0.00     0.270 C 
BRANCH  18  19
HETATM   19  C           1     174.880 185.679 283.815  0.00  0.00     0.034 C 
BRANCH  19  20
HETATM   20  C           1     173.814 185.734 284.902  0.00  0.00    -0.010 C 
HETATM   21  C           1     174.425 185.286 286.226  0.00  0.00     0.035 C 
HETATM   22  C           1     173.455 185.506 287.385  0.00  0.00     0.273 C 
HETATM   23  N           1     173.011 186.900 287.455  0.00  0.00     0.093 N 
HETATM   24  C           1     172.355 187.315 286.214  0.00  0.00     0.273 C 
HETATM   25  C           1     173.285 187.160 285.012  0.00  0.00     0.035 C 
BRANCH  23  26
HETATM   26  C           1     172.032 186.952 288.506  0.00  0.00     0.223 C 
HETATM   27  C           1     172.673 187.346 289.828  0.00  0.00     0.036 C 
HETATM   28  C           1     171.577 188.065 290.616  0.00  0.00     0.002 C 
HETATM   29  C           1     170.430 188.304 289.636  0.00  0.00     0.002 C 
HETATM   30  C           1     171.027 188.064 288.257  0.00  0.00     0.036 C 
ENDBRANCH  23  26
ENDBRANCH  19  20
ENDBRANCH  18  19
ENDBRANCH  16  18
ENDBRANCH   1  16
TORSDOF 9
ENDMDL
MODEL 3
REMARK VINA RESULT:      -7.9      2.240     10.558
REMARK  9 active torsions:
REMARK  status: ('A' for Active; 'I' for Inactive)
REMARK    1  A    between atoms: C_4  and  S_22 
REMARK    2  A    between atoms: C_5  and  C_7 
REMARK    3  A    between atoms: C_7  and  N_8 
REMARK    4  A    between atoms: N_8  and  C_9 
REMARK    5  A    between atoms: C_9  and  C_10 
REMARK    6  A    between atoms: C_10  and  C_11 
REMARK    7  A    between atoms: N_14  and  C_17 
REMARK    8  A    between atoms: S_22  and  C_29 
REMARK    9  A    between atoms: C_23  and  C_29 
ROOT
HETATM    1  C           1     172.590 187.372 284.316  0.00  0.00     0.311 C 
ENDROOT
BRANCH   1   2
HETATM    2  C           1     173.344 186.284 285.017  0.00  0.00     0.005 A 
HETATM    3  C           1     173.071 185.968 286.338  0.00  0.00     0.101 A 
HETATM    4  N           1     173.713 185.000 287.028  0.00  0.00    -0.254 NA
HETATM    5  C           1     174.671 184.318 286.362  0.00  0.00     0.118 A 
HETATM    6  C           1     175.015 184.561 285.043  0.00  0.00     0.020 A 
HETATM    7  C           1     174.336 185.564 284.359  0.00  0.00     0.013 A 
BRANCH   3   8
HETATM    8  S           1     171.775 186.909 287.192  0.00  0.00    -0.105 SA
BRANCH   8   9
HETATM    9  C           1     172.928 187.672 288.369  0.00  0.00     0.119 C 
BRANCH   9  10
HETATM   10  C           1     172.518 187.324 289.766  0.00  0.00    -0.049 A 
HETATM   11  C           1     173.031 186.179 290.378  0.00  0.00     0.008 A 
HETATM   12  C           1     172.649 185.855 291.680  0.00  0.00     0.001 A 
HETATM   13  C           1     171.755 186.673 292.370  0.00  0.00     0.000 A 
HETATM   14  C           1     171.242 187.817 291.757  0.00  0.00     0.001 A 
HETATM   15  C           1     171.623 188.142 290.456  0.00  0.00     0.008 A 
ENDBRANCH   9  10
ENDBRANCH   8   9
ENDBRANCH   3   8
ENDBRANCH   1   2
BRANCH   1  16
HETATM   16  N           1     173.366 187.853 283.205  0.00  0.00     0.087 N 
HETATM   17  H           1     173.684 188.802 283.398  0.00  0.00     0.316 HD
BRANCH  16  18
HETATM   18  C           1     172.512 187.860 282.047  0.00  0.00     0.270 C 
BRANCH  18  19
HETATM   19  C           1     172.638 186.530 281.315  0.00  0.00     0.034 C 
BRANCH  19  20
HETATM   20  C           1     172.916 186.786 279.840  0.00  0.00    -0.010 C 
HETATM   21  C           1     174.424 186.837 279.616  0.00  0.00     0.035 C 
HETATM   22  C           1     174.762 186.898 278.128  0.00  0.00     0.273 C 
HETATM   23  N           1     174.159 185.782 277.397  0.00  0.00     0.093 N 
HETATM   24  C           1     172.703 185.770 277.544  0.00  0.00     0.273 C 
HETATM   25  C           1     172.291 185.669 279.011  0.00  0.00     0.035 C 
BRANCH  23  26
HETATM   26  C           1     174.457 186.011 276.009  0.00  0.00     0.223 C 
HETATM   27  C           1     175.082 187.383 275.805  0.00  0.00     0.036 C 
HETATM   28  C           1     175.984 187.244 274.579  0.00  0.00     0.002 C 
HETATM   29  C           1     176.067 185.749 274.274  0.00  0.00     0.002 C 
HETATM   30  C           1     175.535 185.058 275.521  0.00  0.00     0.036 C 
ENDBRANCH  23  26
ENDBRANCH  19  20
ENDBRANCH  18  19
ENDBRANCH  16  18
ENDBRANCH   1  16
TORSDOF 9
ENDMDL
MODEL 4
REMARK VINA RESULT:      -7.8      3.485      9.905
REMARK  9 active torsions:
REMARK  status: ('A' for Active; 'I' for Inactive)
REMARK    1  A    between atoms: C_4  and  S_22 
REMARK    2  A    between atoms: C_5  and  C_7 
REMARK    3  A    between atoms: C_7  and  N_8 
REMARK    4  A    between atoms: N_8  and  C_9 
REMARK    5  A    between atoms: C_9  and  C_10 
REMARK    6  A    between atoms: C_10  and  C_11 
REMARK    7  A    between atoms: N_14  and  C_17 
REMARK    8  A    between atoms: S_22  and  C_29 
REMARK    9  A    between atoms: C_23  and  C_29 
ROOT
HETATM    1  C           1     172.828 185.588 290.627  0.00  0.00     0.311 C 
ENDROOT
BRANCH   1   2
HETATM    2  C           1     171.715 186.052 291.514  0.00  0.00     0.005 A 
HETATM    3  C           1     170.394 185.778 291.201  0.00  0.00     0.101 A 
HETATM    4  N           1     169.344 186.166 291.958  0.00  0.00    -0.254 NA
HETATM    5  C           1     169.634 186.861 293.080  0.00  0.00     0.118 A 
HETATM    6  C           1     170.921 187.183 293.477  0.00  0.00     0.020 A 
HETATM    7  C           1     171.980 186.768 292.677  0.00  0.00     0.013 A 
BRANCH   3   8
HETATM    8  S           1     170.052 184.841 289.684  0.00  0.00    -0.105 SA
BRANCH   8   9
HETATM    9  C           1     168.479 185.690 289.363  0.00  0.00     0.119 C 
BRANCH   9  10
HETATM   10  C           1     168.750 187.030 288.755  0.00  0.00    -0.049 A 
HETATM   11  C           1     167.976 188.132 289.123  0.00  0.00     0.008 A 
HETATM   12  C           1     168.229 189.381 288.557  0.00  0.00     0.001 A 
HETATM   13  C           1     169.254 189.530 287.623  0.00  0.00     0.000 A 
HETATM   14  C           1     170.027 188.429 287.255  0.00  0.00     0.001 A 
HETATM   15  C           1     169.775 187.180 287.821  0.00  0.00     0.008 A 
ENDBRANCH   9  10
ENDBRANCH   8   9
ENDBRANCH   3   8
ENDBRANCH   1   2
BRANCH   1  16
HETATM   16  N           1     173.152 186.623 289.683  0.00  0.00     0.087 N 
HETATM   17  H           1     172.302 186.932 289.213  0.00  0.00     0.316 HD
BRANCH  16  18
HETATM   18  C           1     174.059 186.065 288.716  0.00  0.00     0.270 C 
BRANCH  18  19
HETATM   19  C           1     173.281 185.207 287.726  0.00  0.00     0.034 C 
BRANCH  19  20
HETATM   20  C           1     173.549 185.697 286.309  0.00  0.00    -0.010 C 
HETATM   21  C           1     174.813 185.029 285.779  0.00  0.00     0.035 C 
HETATM   22  C           1     175.021 185.335 284.297  0.00  0.00     0.273 C 
HETATM   23  N           1     173.851 184.954 283.503  0.00  0.00     0.093 N 
HETATM   24  C           1     172.646 185.649 283.957  0.00  0.00     0.273 C 
HETATM   25  C           1     172.352 185.355 285.427  0.00  0.00     0.035 C 
BRANCH  23  26
HETATM   26  C           1     174.125 185.387 282.159  0.00  0.00     0.223 C 
HETATM   27  C           1     172.963 186.193 281.599  0.00  0.00     0.036 C 
HETATM   28  C           1     173.584 187.166 280.597  0.00  0.00     0.002 C 
HETATM   29  C           1     175.096 187.084 280.801  0.00  0.00     0.002 C 
HETATM   30  C           1     175.281 186.373 282.133  0.00  0.00     0.036 C 
ENDBRANCH  23  26
ENDBRANCH  19  20
ENDBRANCH  18  19
ENDBRANCH  16  18
ENDBRANCH   1  16
TORSDOF 9
ENDMDL
MODEL 5
REMARK VINA RESULT:      -7.8      2.237      3.930
REMARK  9 active torsions:
REMARK  status: ('A' for Active; 'I' for Inactive)
REMARK    1  A    between atoms: C_4  and  S_22 
REMARK    2  A    between atoms: C_5  and  C_7 
REMARK    3  A    between atoms: C_7  and  N_8 
REMARK    4  A    between atoms: N_8  and  C_9 
REMARK    5  A    between atoms: C_9  and  C_10 
REMARK    6  A    between atoms: C_10  and  C_11 
REMARK    7  A    between atoms: N_14  and  C_17 
REMARK    8  A    between atoms: S_22  and  C_29 
REMARK    9  A    between atoms: C_23  and  C_29 
ROOT
HETATM    1  C           1     173.657 185.741 284.414  0.00  0.00     0.311 C 
ENDROOT
BRANCH   1   2
HETATM    2  C           1     172.953 186.999 284.007  0.00  0.00     0.005 A 
HETATM    3  C           1     173.197 187.583 282.775  0.00  0.00     0.101 A 
HETATM    4  N           1     172.597 188.715 282.346  0.00  0.00    -0.254 NA
HETATM    5  C           1     171.711 189.286 283.192  0.00  0.00     0.118 A 
HETATM    6  C           1     171.400 188.777 284.442  0.00  0.00     0.020 A 
HETATM    7  C           1     172.035 187.610 284.854  0.00  0.00     0.013 A 
BRANCH   3   8
HETATM    8  S           1     174.394 186.782 281.671  0.00  0.00    -0.105 SA
BRANCH   8   9
HETATM    9  C           1     173.118 185.988 280.653  0.00  0.00     0.119 C 
BRANCH   9  10
HETATM   10  C           1     173.487 186.106 279.208  0.00  0.00    -0.049 A 
HETATM   11  C           1     174.633 186.811 278.836  0.00  0.00     0.008 A 
HETATM   12  C           1     174.977 186.921 277.489  0.00  0.00     0.001 A 
HETATM   13  C           1     174.176 186.328 276.513  0.00  0.00     0.000 A 
HETATM   14  C           1     173.030 185.624 276.885  0.00  0.00     0.001 A 
HETATM   15  C           1     172.686 185.513 278.232  0.00  0.00     0.008 A 
ENDBRANCH   9  10
ENDBRANCH   8   9
ENDBRANCH   3   8
ENDBRANCH   1   2
BRANCH   1  16
HETATM   16  N           1     172.952 185.131 285.509  0.00  0.00     0.087 N 
HETATM   17  H           1     172.330 185.816 285.936  0.00  0.00     0.316 HD
BRANCH  16  18
HETATM   18  C           1     173.930 184.703 286.473  0.00  0.00     0.270 C 
BRANCH  18  19
HETATM   19  C           1     174.301 185.874 287.373  0.00  0.00     0.034 C 
BRANCH  19  20
HETATM   20  C           1     173.217 186.072 288.424  0.00  0.00    -0.010 C 
HETATM   21  C           1     173.827 185.901 289.812  0.00  0.00     0.035 C 
HETATM   22  C           1     172.830 186.278 290.905  0.00  0.00     0.273 C 
HETATM   23  N           1     172.320 187.638 290.718  0.00  0.00     0.093 N 
HETATM   24  C           1     171.665 187.790 289.419  0.00  0.00     0.273 C 
HETATM   25  C           1     172.619 187.466 288.271  0.00  0.00     0.035 C 
BRANCH  23  26
HETATM   26  C           1     171.323 187.831 291.736  0.00  0.00     0.223 C 
HETATM   27  C           1     169.978 187.276 291.292  0.00  0.00     0.036 C 
HETATM   28  C           1     169.264 186.856 292.577  0.00  0.00     0.002 C 
HETATM   29  C           1     170.308 186.925 293.690  0.00  0.00     0.002 C 
HETATM   30  C           1     171.647 187.014 292.975  0.00  0.00     0.036 C 
ENDBRANCH  23  26
ENDBRANCH  19  20
ENDBRANCH  18  19
ENDBRANCH  16  18
ENDBRANCH   1  16
TORSDOF 9
ENDMDL
MODEL 6
REMARK VINA RESULT:      -7.7      3.193      9.830
REMARK  9 active torsions:
REMARK  status: ('A' for Active; 'I' for Inactive)
REMARK    1  A    between atoms: C_4  and  S_22 
REMARK    2  A    between atoms: C_5  and  C_7 
REMARK    3  A    between atoms: C_7  and  N_8 
REMARK    4  A    between atoms: N_8  and  C_9 
REMARK    5  A    between atoms: C_9  and  C_10 
REMARK    6  A    between atoms: C_10  and  C_11 
REMARK    7  A    between atoms: N_14  and  C_17 
REMARK    8  A    between atoms: S_22  and  C_29 
REMARK    9  A    between atoms: C_23  and  C_29 
ROOT
HETATM    1  C           1     172.255 185.064 287.483  0.00  0.00     0.311 C 
ENDROOT
BRANCH   1   2
HETATM    2  C           1     171.317 186.221 287.326  0.00  0.00     0.005 A 
HETATM    3  C           1     170.062 186.203 287.911  0.00  0.00     0.101 A 
HETATM    4  N           1     169.169 187.212 287.808  0.00  0.00    -0.254 NA
HETATM    5  C           1     169.554 188.288 287.086  0.00  0.00     0.118 A 
HETATM    6  C           1     170.786 188.398 286.464  0.00  0.00     0.020 A 
HETATM    7  C           1     171.684 187.342 286.589  0.00  0.00     0.013 A 
BRANCH   3   8
HETATM    8  S           1     169.587 184.739 288.872  0.00  0.00    -0.105 SA
BRANCH   8   9
HETATM    9  C           1     168.955 185.705 290.273  0.00  0.00     0.119 C 
BRANCH   9  10
HETATM   10  C           1     170.076 186.008 291.217  0.00  0.00    -0.049 A 
HETATM   11  C           1     171.248 185.251 291.174  0.00  0.00     0.008 A 
HETATM   12  C           1     172.293 185.534 292.053  0.00  0.00     0.001 A 
HETATM   13  C           1     172.168 186.571 292.976  0.00  0.00     0.000 A 
HETATM   14  C           1     170.996 187.328 293.019  0.00  0.00     0.001 A 
HETATM   15  C           1     169.951 187.046 292.140  0.00  0.00     0.008 A 
ENDBRANCH   9  10
ENDBRANCH   8   9
ENDBRANCH   3   8
ENDBRANCH   1   2
BRANCH   1  16
HETATM   16  N           1     173.600 185.497 287.215  0.00  0.00     0.087 N 
HETATM   17  H           1     173.578 186.404 286.749  0.00  0.00     0.316 HD
BRANCH  16  18
HETATM   18  C           1     174.206 184.525 286.346  0.00  0.00     0.270 C 
BRANCH  18  19
HETATM   19  C           1     175.272 185.201 285.493  0.00  0.00     0.034 C 
BRANCH  19  20
HETATM   20  C           1     174.603 185.994 284.378  0.00  0.00    -0.010 C 
HETATM   21  C           1     175.648 186.365 283.331  0.00  0.00     0.035 C 
HETATM   22  C           1     175.000 186.991 282.098  0.00  0.00     0.273 C 
HETATM   23  N           1     173.973 186.116 281.530  0.00  0.00     0.093 N 
HETATM   24  C           1     172.925 185.817 282.507  0.00  0.00     0.273 C 
HETATM   25  C           1     173.498 185.148 283.755  0.00  0.00     0.035 C 
BRANCH  23  26
HETATM   26  C           1     173.370 186.857 280.455  0.00  0.00     0.223 C 
HETATM   27  C           1     172.448 185.970 279.633  0.00  0.00     0.036 C 
HETATM   28  C           1     171.373 186.902 279.074  0.00  0.00     0.002 C 
HETATM   29  C           1     171.543 188.236 279.800  0.00  0.00     0.002 C 
HETATM   30  C           1     172.437 187.930 280.992  0.00  0.00     0.036 C 
ENDBRANCH  23  26
ENDBRANCH  19  20
ENDBRANCH  18  19
ENDBRANCH  16  18
ENDBRANCH   1  16
TORSDOF 9
ENDMDL
MODEL 7
REMARK VINA RESULT:      -7.7      3.595      5.958
REMARK  9 active torsions:
REMARK  status: ('A' for Active; 'I' for Inactive)
REMARK    1  A    between atoms: C_4  and  S_22 
REMARK    2  A    between atoms: C_5  and  C_7 
REMARK    3  A    between atoms: C_7  and  N_8 
REMARK    4  A    between atoms: N_8  and  C_9 
REMARK    5  A    between atoms: C_9  and  C_10 
REMARK    6  A    between atoms: C_10  and  C_11 
REMARK    7  A    between atoms: N_14  and  C_17 
REMARK    8  A    between atoms: S_22  and  C_29 
REMARK    9  A    between atoms: C_23  and  C_29 
ROOT
HETATM    1  C           1     174.203 185.376 276.291  0.00  0.00     0.311 C 
ENDROOT
BRANCH   1   2
HETATM    2  C           1     175.565 185.729 275.779  0.00  0.00     0.005 A 
HETATM    3  C           1     175.840 185.714 274.421  0.00  0.00     0.101 A 
HETATM    4  N           1     177.045 186.022 273.894  0.00  0.00    -0.254 NA
HETATM    5  C           1     178.019 186.359 274.769  0.00  0.00     0.118 A 
HETATM    6  C           1     177.841 186.401 276.142  0.00  0.00     0.020 A 
HETATM    7  C           1     176.588 186.080 276.653  0.00  0.00     0.013 A 
BRANCH   3   8
HETATM    8  S           1     174.502 185.256 273.283  0.00  0.00    -0.105 SA
BRANCH   8   9
HETATM    9  C           1     175.336 185.942 271.824  0.00  0.00     0.119 C 
BRANCH   9  10
HETATM   10  C           1     175.580 184.851 270.829  0.00  0.00    -0.049 A 
HETATM   11  C           1     175.675 185.155 269.470  0.00  0.00     0.008 A 
HETATM   12  C           1     175.902 184.138 268.543  0.00  0.00     0.001 A 
HETATM   13  C           1     176.032 182.818 268.973  0.00  0.00     0.000 A 
HETATM   14  C           1     175.936 182.514 270.331  0.00  0.00     0.001 A 
HETATM   15  C           1     175.709 183.530 271.258  0.00  0.00     0.008 A 
ENDBRANCH   9  10
ENDBRANCH   8   9
ENDBRANCH   3   8
ENDBRANCH   1   2
BRANCH   1  16
HETATM   16  N           1     173.664 186.489 277.025  0.00  0.00     0.087 N 
HETATM   17  H           1     174.363 187.229 277.081  0.00  0.00     0.316 HD
BRANCH  16  18
HETATM   18  C           1     173.348 186.026 278.350  0.00  0.00     0.270 C 
BRANCH  18  19
HETATM   19  C           1     173.471 187.182 279.334  0.00  0.00     0.034 C 
BRANCH  19  20
HETATM   20  C           1     173.988 186.661 280.669  0.00  0.00    -0.010 C 
HETATM   21  C           1     174.416 187.841 281.535  0.00  0.00     0.035 C 
HETATM   22  C           1     174.761 187.391 282.953  0.00  0.00     0.273 C 
HETATM   23  N           1     173.650 186.661 283.568  0.00  0.00     0.093 N 
HETATM   24  C           1     173.283 185.483 282.781  0.00  0.00     0.273 C 
HETATM   25  C           1     172.885 185.864 281.357  0.00  0.00     0.035 C 
BRANCH  23  26
HETATM   26  C           1     174.134 186.203 284.842  0.00  0.00     0.223 C 
HETATM   27  C           1     172.981 185.810 285.753  0.00  0.00     0.036 C 
HETATM   28  C           1     173.537 184.723 286.672  0.00  0.00     0.002 C 
HETATM   29  C           1     174.896 184.329 286.097  0.00  0.00     0.002 C 
HETATM   30  C           1     174.918 184.910 284.692  0.00  0.00     0.036 C 
ENDBRANCH  23  26
ENDBRANCH  19  20
ENDBRANCH  18  19
ENDBRANCH  16  18
ENDBRANCH   1  16
TORSDOF 9
ENDMDL
MODEL 8
REMARK VINA RESULT:      -7.7      3.141      9.890
REMARK  9 active torsions:
REMARK  status: ('A' for Active; 'I' for Inactive)
REMARK    1  A    between atoms: C_4  and  S_22 
REMARK    2  A    between atoms: C_5  and  C_7 
REMARK    3  A    between atoms: C_7  and  N_8 
REMARK    4  A    between atoms: N_8  and  C_9 
REMARK    5  A    between atoms: C_9  and  C_10 
REMARK    6  A    between atoms: C_10  and  C_11 
REMARK    7  A    between atoms: N_14  and  C_17 
REMARK    8  A    between atoms: S_22  and  C_29 
REMARK    9  A    between atoms: C_23  and  C_29 
ROOT
HETATM    1  C           1     173.519 186.838 289.361  0.00  0.00     0.311 C 
ENDROOT
BRANCH   1   2
HETATM    2  C           1     173.145 186.127 290.625  0.00  0.00     0.005 A 
HETATM    3  C           1     172.206 186.663 291.491  0.00  0.00     0.101 A 
HETATM    4  N           1     171.824 186.073 292.645  0.00  0.00    -0.254 NA
HETATM    5  C           1     172.411 184.893 292.944  0.00  0.00     0.118 A 
HETATM    6  C           1     173.359 184.279 292.142  0.00  0.00     0.020 A 
HETATM    7  C           1     173.730 184.911 290.960  0.00  0.00     0.013 A 
BRANCH   3   8
HETATM    8  S           1     171.443 188.250 291.050  0.00  0.00    -0.105 SA
BRANCH   8   9
HETATM    9  C           1     169.805 187.526 290.757  0.00  0.00     0.119 C 
BRANCH   9  10
HETATM   10  C           1     169.888 186.541 289.633  0.00  0.00    -0.049 A 
HETATM   11  C           1     170.257 186.969 288.357  0.00  0.00     0.008 A 
HETATM   12  C           1     170.335 186.050 287.310  0.00  0.00     0.001 A 
HETATM   13  C           1     170.043 184.706 287.538  0.00  0.00     0.000 A 
HETATM   14  C           1     169.674 184.279 288.814  0.00  0.00     0.001 A 
HETATM   15  C           1     169.596 185.196 289.861  0.00  0.00     0.008 A 
ENDBRANCH   9  10
ENDBRANCH   8   9
ENDBRANCH   3   8
ENDBRANCH   1   2
BRANCH   1  16
HETATM   16  N           1     174.351 185.984 288.559  0.00  0.00     0.087 N 
HETATM   17  H           1     175.332 186.181 288.758  0.00  0.00     0.316 HD
BRANCH  16  18
HETATM   18  C           1     174.075 186.277 287.178  0.00  0.00     0.270 C 
BRANCH  18  19
HETATM   19  C           1     173.906 184.975 286.406  0.00  0.00     0.034 C 
BRANCH  19  20
HETATM   20  C           1     173.455 185.281 284.984  0.00  0.00    -0.010 C 
HETATM   21  C           1     173.058 186.751 284.891  0.00  0.00     0.035 C 
HETATM   22  C           1     172.782 187.160 283.445  0.00  0.00     0.273 C 
HETATM   23  N           1     173.925 186.867 282.578  0.00  0.00     0.093 N 
HETATM   24  C           1     174.265 185.444 282.603  0.00  0.00     0.273 C 
HETATM   25  C           1     174.594 184.973 284.019  0.00  0.00     0.035 C 
BRANCH  23  26
HETATM   26  C           1     173.504 187.193 281.243  0.00  0.00     0.223 C 
HETATM   27  C           1     174.679 187.159 280.278  0.00  0.00     0.036 C 
HETATM   28  C           1     174.085 186.780 278.921  0.00  0.00     0.002 C 
HETATM   29  C           1     172.645 186.344 279.190  0.00  0.00     0.002 C 
HETATM   30  C           1     172.569 186.128 280.694  0.00  0.00     0.036 C 
ENDBRANCH  23  26
ENDBRANCH  19  20
ENDBRANCH  18  19
ENDBRANCH  16  18
ENDBRANCH   1  16
TORSDOF 9
ENDMDL
MODEL 9
REMARK VINA RESULT:      -7.6      2.301     10.272
REMARK  9 active torsions:
REMARK  status: ('A' for Active; 'I' for Inactive)
REMARK    1  A    between atoms: C_4  and  S_22 
REMARK    2  A    between atoms: C_5  and  C_7 
REMARK    3  A    between atoms: C_7  and  N_8 
REMARK    4  A    between atoms: N_8  and  C_9 
REMARK    5  A    between atoms: C_9  and  C_10 
REMARK    6  A    between atoms: C_10  and  C_11 
REMARK    7  A    between atoms: N_14  and  C_17 
REMARK    8  A    between atoms: S_22  and  C_29 
REMARK    9  A    between atoms: C_23  and  C_29 
ROOT
HETATM    1  C           1     172.269 187.344 285.360  0.00  0.00     0.311 C 
ENDROOT
BRANCH   1   2
HETATM    2  C           1     173.233 186.205 285.483  0.00  0.00     0.005 A 
HETATM    3  C           1     173.235 185.392 286.605  0.00  0.00     0.101 A 
HETATM    4  N           1     174.076 184.350 286.778  0.00  0.00    -0.254 NA
HETATM    5  C           1     174.956 184.111 285.780  0.00  0.00     0.118 A 
HETATM    6  C           1     175.031 184.867 284.621  0.00  0.00     0.020 A 
HETATM    7  C           1     174.150 185.933 284.473  0.00  0.00     0.013 A 
BRANCH   3   8
HETATM    8  S           1     172.036 185.749 287.921  0.00  0.00    -0.105 SA
BRANCH   8   9
HETATM    9  C           1     173.299 185.839 289.222  0.00  0.00     0.119 C 
BRANCH   9  10
HETATM   10  C           1     172.675 186.333 290.489  0.00  0.00    -0.049 A 
HETATM   11  C           1     172.716 185.544 291.640  0.00  0.00     0.008 A 
HETATM   12  C           1     172.135 186.004 292.821  0.00  0.00     0.001 A 
HETATM   13  C           1     171.512 187.252 292.853  0.00  0.00     0.000 A 
HETATM   14  C           1     171.471 188.040 291.702  0.00  0.00     0.001 A 
HETATM   15  C           1     172.052 187.581 290.522  0.00  0.00     0.008 A 
ENDBRANCH   9  10
ENDBRANCH   8   9
ENDBRANCH   3   8
ENDBRANCH   1   2
BRANCH   1  16
HETATM   16  N           1     171.911 187.522 283.979  0.00  0.00     0.087 N 
HETATM   17  H           1     172.689 187.235 283.387  0.00  0.00     0.316 HD
BRANCH  16  18
HETATM   18  C           1     171.644 188.921 283.775  0.00  0.00     0.270 C 
BRANCH  18  19
HETATM   19  C           1     172.458 189.426 282.590  0.00  0.00     0.034 C 
BRANCH  19  20
HETATM   20  C           1     172.844 188.251 281.701  0.00  0.00    -0.010 C 
HETATM   21  C           1     172.000 188.286 280.431  0.00  0.00     0.035 C 
HETATM   22  C           1     172.478 187.246 279.420  0.00  0.00     0.273 C 
HETATM   23  N           1     173.900 187.413 279.112  0.00  0.00     0.093 N 
HETATM   24  C           1     174.725 187.305 280.317  0.00  0.00     0.273 C 
HETATM   25  C           1     174.327 188.346 281.361  0.00  0.00     0.035 C 
BRANCH  23  26
HETATM   26  C           1     174.249 186.321 278.244  0.00  0.00     0.223 C 
HETATM   27  C           1     173.111 186.002 277.287  0.00  0.00     0.036 C 
HETATM   28  C           1     173.776 185.437 276.032  0.00  0.00     0.002 C 
HETATM   29  C           1     175.274 185.695 276.189  0.00  0.00     0.002 C 
HETATM   30  C           1     175.389 186.709 277.316  0.00  0.00     0.036 C 
ENDBRANCH  23  26
ENDBRANCH  19  20
ENDBRANCH  18  19
ENDBRANCH  16  18
ENDBRANCH   1  16
TORSDOF 9
ENDMDL
