MODEL 1
REMARK VINA RESULT:      -8.6      0.000      0.000
REMARK  9 active torsions:
REMARK  status: ('A' for Active; 'I' for Inactive)
REMARK    1  A    between atoms: C_4  and  S_28 
REMARK    2  A    between atoms: C_5  and  C_7 
REMARK    3  A    between atoms: C_7  and  N_8 
REMARK    4  A    between atoms: N_8  and  C_9 
REMARK    5  A    between atoms: C_9  and  C_10 
REMARK    6  A    between atoms: C_10  and  C_11 
REMARK    7  A    between atoms: N_14  and  C_17 
REMARK    8  A    between atoms: S_28  and  C_35 
REMARK    9  A    between atoms: C_29  and  C_35 
ROOT
HETATM    1  C           1     175.488 185.490 272.301  0.00  0.00    -0.008 A 
HETATM    2  C           1     176.029 184.754 271.258  0.00  0.00     0.130 A 
HETATM    3  N           1     175.451 184.638 270.042  0.00  0.00    -0.253 NA
HETATM    4  C           1     174.280 185.286 269.863  0.00  0.00     0.101 A 
HETATM    5  C           1     173.662 186.046 270.844  0.00  0.00     0.006 A 
HETATM    6  C           1     174.281 186.147 272.085  0.00  0.00     0.025 A 
HETATM    7  C           1     176.109 185.567 273.482  0.00  0.00    -0.024 A 
HETATM    8  C           1     175.675 184.784 274.551  0.00  0.00     0.014 A 
HETATM    9  C           1     176.323 184.864 275.783  0.00  0.00     0.023 A 
HETATM   10  C           1     177.408 185.726 275.946  0.00  0.00     0.044 A 
HETATM   11  C           1     177.842 186.509 274.877  0.00  0.00     0.023 A 
HETATM   12  C           1     177.194 186.429 273.645  0.00  0.00     0.014 A 
HETATM   13  C           1     178.019 185.802 277.106  0.00  0.00     0.099 C 
HETATM   14  N           1     178.557 185.868 278.129  0.00  0.00    -0.191 NA
ENDROOT
BRANCH   5  15
HETATM   15  C           1     172.363 186.738 270.575  0.00  0.00     0.311 C 
BRANCH  15  16
HETATM   16  N           1     172.544 188.161 270.681  0.00  0.00     0.087 N 
HETATM   17  H           1     173.522 188.364 270.892  0.00  0.00     0.316 HD
BRANCH  16  18
HETATM   18  C           1     171.714 188.628 271.758  0.00  0.00     0.270 C 
BRANCH  18  19
HETATM   19  C           1     172.540 189.499 272.695  0.00  0.00     0.034 C 
BRANCH  19  20
HETATM   20  C           1     172.504 188.910 274.100  0.00  0.00    -0.010 C 
HETATM   21  C           1     171.540 187.728 274.123  0.00  0.00     0.035 C 
HETATM   22  C           1     171.611 186.981 275.453  0.00  0.00     0.273 C 
HETATM   23  N           1     172.977 186.551 275.753  0.00  0.00     0.093 N 
HETATM   24  C           1     173.896 187.689 275.810  0.00  0.00     0.273 C 
HETATM   25  C           1     173.909 188.462 274.492  0.00  0.00     0.035 C 
BRANCH  23  26
HETATM   26  C           1     172.928 185.963 277.065  0.00  0.00     0.223 C 
HETATM   27  C           1     173.979 186.579 277.977  0.00  0.00     0.036 C 
HETATM   28  C           1     173.403 186.479 279.389  0.00  0.00     0.002 C 
HETATM   29  C           1     171.943 186.063 279.229  0.00  0.00     0.002 C 
HETATM   30  C           1     171.620 186.296 277.762  0.00  0.00     0.036 C 
ENDBRANCH  23  26
ENDBRANCH  19  20
ENDBRANCH  18  19
ENDBRANCH  16  18
ENDBRANCH  15  16
ENDBRANCH   5  15
BRANCH   4  31
HETATM   31  S           1     173.469 185.156 268.245  0.00  0.00    -0.105 SA
BRANCH  31  32
HETATM   32  C           1     174.603 186.322 267.441  0.00  0.00     0.119 C 
BRANCH  32  33
HETATM   33  C           1     174.011 187.697 267.471  0.00  0.00    -0.049 A 
HETATM   34  C           1     172.716 187.909 266.998  0.00  0.00     0.008 A 
HETATM   35  C           1     172.163 189.189 267.025  0.00  0.00     0.001 A 
HETATM   36  C           1     172.907 190.258 267.525  0.00  0.00     0.000 A 
HETATM   37  C           1     174.202 190.047 267.997  0.00  0.00     0.001 A 
HETATM   38  C           1     174.754 188.766 267.970  0.00  0.00     0.008 A 
ENDBRANCH  32  33
ENDBRANCH  31  32
ENDBRANCH   4  31
TORSDOF 9
ENDMDL
MODEL 2
REMARK VINA RESULT:      -8.6      6.304     10.860
REMARK  9 active torsions:
REMARK  status: ('A' for Active; 'I' for Inactive)
REMARK    1  A    between atoms: C_4  and  S_28 
REMARK    2  A    between atoms: C_5  and  C_7 
REMARK    3  A    between atoms: C_7  and  N_8 
REMARK    4  A    between atoms: N_8  and  C_9 
REMARK    5  A    between atoms: C_9  and  C_10 
REMARK    6  A    between atoms: C_10  and  C_11 
REMARK    7  A    between atoms: N_14  and  C_17 
REMARK    8  A    between atoms: S_28  and  C_35 
REMARK    9  A    between atoms: C_29  and  C_35 
ROOT
HETATM    1  C           1     171.685 189.302 281.098  0.00  0.00    -0.008 A 
HETATM    2  C           1     170.862 188.890 280.061  0.00  0.00     0.130 A 
HETATM    3  N           1     171.127 187.829 279.269  0.00  0.00    -0.253 NA
HETATM    4  C           1     172.267 187.151 279.525  0.00  0.00     0.101 A 
HETATM    5  C           1     173.152 187.487 280.538  0.00  0.00     0.006 A 
HETATM    6  C           1     172.852 188.584 281.337  0.00  0.00     0.025 A 
HETATM    7  C           1     171.365 190.362 281.848  0.00  0.00    -0.024 A 
HETATM    8  C           1     171.981 191.592 281.615  0.00  0.00     0.014 A 
HETATM    9  C           1     171.648 192.698 282.398  0.00  0.00     0.023 A 
HETATM   10  C           1     170.698 192.575 283.411  0.00  0.00     0.044 A 
HETATM   11  C           1     170.082 191.345 283.644  0.00  0.00     0.023 A 
HETATM   12  C           1     170.415 190.239 282.861  0.00  0.00     0.014 A 
HETATM   13  C           1     170.384 193.615 284.148  0.00  0.00     0.099 C 
HETATM   14  N           1     170.107 194.533 284.797  0.00  0.00    -0.191 NA
ENDROOT
BRANCH   5  15
HETATM   15  C           1     174.398 186.689 280.765  0.00  0.00     0.311 C 
BRANCH  15  16
HETATM   16  N           1     175.136 187.251 281.864  0.00  0.00     0.087 N 
HETATM   17  H           1     175.888 187.839 281.503  0.00  0.00     0.316 HD
BRANCH  16  18
HETATM   18  C           1     175.697 186.162 282.616  0.00  0.00     0.270 C 
BRANCH  18  19
HETATM   19  C           1     174.707 185.005 282.651  0.00  0.00     0.034 C 
BRANCH  19  20
HETATM   20  C           1     174.125 184.876 284.052  0.00  0.00    -0.010 C 
HETATM   21  C           1     175.179 185.292 285.073  0.00  0.00     0.035 C 
HETATM   22  C           1     174.589 185.368 286.479  0.00  0.00     0.273 C 
HETATM   23  N           1     173.430 186.260 286.526  0.00  0.00     0.093 N 
HETATM   24  C           1     172.380 185.823 285.605  0.00  0.00     0.273 C 
HETATM   25  C           1     172.890 185.765 284.165  0.00  0.00     0.035 C 
BRANCH  23  26
HETATM   26  C           1     172.907 186.161 287.863  0.00  0.00     0.223 C 
HETATM   27  C           1     173.972 185.665 288.829  0.00  0.00     0.036 C 
HETATM   28  C           1     173.611 186.273 290.183  0.00  0.00     0.002 C 
HETATM   29  C           1     172.521 187.308 289.912  0.00  0.00     0.002 C 
HETATM   30  C           1     172.550 187.533 288.409  0.00  0.00     0.036 C 
ENDBRANCH  23  26
ENDBRANCH  19  20
ENDBRANCH  18  19
ENDBRANCH  16  18
ENDBRANCH  15  16
ENDBRANCH   5  15
BRANCH   4  31
HETATM   31  S           1     172.664 185.719 278.484  0.00  0.00    -0.105 SA
BRANCH  31  32
HETATM   32  C           1     173.193 186.731 277.073  0.00  0.00     0.119 C 
BRANCH  32  33
HETATM   33  C           1     174.552 186.290 276.623  0.00  0.00    -0.049 A 
HETATM   34  C           1     174.677 185.363 275.589  0.00  0.00     0.008 A 
HETATM   35  C           1     175.943 184.952 275.170  0.00  0.00     0.001 A 
HETATM   36  C           1     177.083 185.468 275.787  0.00  0.00     0.000 A 
HETATM   37  C           1     176.957 186.394 276.821  0.00  0.00     0.001 A 
HETATM   38  C           1     175.692 186.806 277.241  0.00  0.00     0.008 A 
ENDBRANCH  32  33
ENDBRANCH  31  32
ENDBRANCH   4  31
TORSDOF 9
ENDMDL
MODEL 3
REMARK VINA RESULT:      -7.9      7.003     11.470
REMARK  9 active torsions:
REMARK  status: ('A' for Active; 'I' for Inactive)
REMARK    1  A    between atoms: C_4  and  S_28 
REMARK    2  A    between atoms: C_5  and  C_7 
REMARK    3  A    between atoms: C_7  and  N_8 
REMARK    4  A    between atoms: N_8  and  C_9 
REMARK    5  A    between atoms: C_9  and  C_10 
REMARK    6  A    between atoms: C_10  and  C_11 
REMARK    7  A    between atoms: N_14  and  C_17 
REMARK    8  A    between atoms: S_28  and  C_35 
REMARK    9  A    between atoms: C_29  and  C_35 
ROOT
HETATM    1  C           1     171.552 189.404 281.263  0.00  0.00    -0.008 A 
HETATM    2  C           1     170.881 189.093 280.090  0.00  0.00     0.130 A 
HETATM    3  N           1     171.175 188.024 279.318  0.00  0.00    -0.253 NA
HETATM    4  C           1     172.185 187.232 279.739  0.00  0.00     0.101 A 
HETATM    5  C           1     172.913 187.461 280.897  0.00  0.00     0.006 A 
HETATM    6  C           1     172.587 188.569 281.670  0.00  0.00     0.025 A 
HETATM    7  C           1     171.213 190.478 281.984  0.00  0.00    -0.024 A 
HETATM    8  C           1     171.974 191.644 281.899  0.00  0.00     0.014 A 
HETATM    9  C           1     171.620 192.764 282.651  0.00  0.00     0.023 A 
HETATM   10  C           1     170.504 192.720 283.486  0.00  0.00     0.044 A 
HETATM   11  C           1     169.743 191.554 283.571  0.00  0.00     0.023 A 
HETATM   12  C           1     170.097 190.433 282.819  0.00  0.00     0.014 A 
HETATM   13  C           1     170.171 193.774 284.194  0.00  0.00     0.099 C 
HETATM   14  N           1     169.877 194.704 284.818  0.00  0.00    -0.191 NA
ENDROOT
BRANCH   5  15
HETATM   15  C           1     174.020 186.539 281.302  0.00  0.00     0.311 C 
BRANCH  15  16
HETATM   16  N           1     174.138 186.529 282.735  0.00  0.00     0.087 N 
HETATM   17  H           1     175.124 186.474 282.994  0.00  0.00     0.316 HD
BRANCH  16  18
HETATM   18  C           1     173.448 185.367 283.223  0.00  0.00     0.270 C 
BRANCH  18  19
HETATM   19  C           1     174.191 184.803 284.427  0.00  0.00     0.034 C 
BRANCH  19  20
HETATM   20  C           1     173.760 185.548 285.684  0.00  0.00    -0.010 C 
HETATM   21  C           1     172.433 184.979 286.174  0.00  0.00     0.035 C 
HETATM   22  C           1     172.053 185.554 287.537  0.00  0.00     0.273 C 
HETATM   23  N           1     173.113 185.341 288.523  0.00  0.00     0.093 N 
HETATM   24  C           1     174.372 185.952 288.095  0.00  0.00     0.273 C 
HETATM   25  C           1     174.838 185.390 286.753  0.00  0.00     0.035 C 
BRANCH  23  26
HETATM   26  C           1     172.683 186.016 289.719  0.00  0.00     0.223 C 
HETATM   27  C           1     172.666 187.524 289.517  0.00  0.00     0.036 C 
HETATM   28  C           1     171.577 188.048 290.452  0.00  0.00     0.002 C 
HETATM   29  C           1     170.819 186.823 290.959  0.00  0.00     0.002 C 
HETATM   30  C           1     171.235 185.688 290.038  0.00  0.00     0.036 C 
ENDBRANCH  23  26
ENDBRANCH  19  20
ENDBRANCH  18  19
ENDBRANCH  16  18
ENDBRANCH  15  16
ENDBRANCH   5  15
BRANCH   4  31
HETATM   31  S           1     172.613 185.785 278.732  0.00  0.00    -0.105 SA
BRANCH  31  32
HETATM   32  C           1     173.069 186.773 277.279  0.00  0.00     0.119 C 
BRANCH  32  33
HETATM   33  C           1     174.390 186.305 276.750  0.00  0.00    -0.049 A 
HETATM   34  C           1     174.435 185.376 275.711  0.00  0.00     0.008 A 
HETATM   35  C           1     175.665 184.940 275.219  0.00  0.00     0.001 A 
HETATM   36  C           1     176.850 185.433 275.767  0.00  0.00     0.000 A 
HETATM   37  C           1     176.804 186.362 276.805  0.00  0.00     0.001 A 
HETATM   38  C           1     175.574 186.798 277.298  0.00  0.00     0.008 A 
ENDBRANCH  32  33
ENDBRANCH  31  32
ENDBRANCH   4  31
TORSDOF 9
ENDMDL
MODEL 4
REMARK VINA RESULT:      -7.7      4.372      9.144
REMARK  9 active torsions:
REMARK  status: ('A' for Active; 'I' for Inactive)
REMARK    1  A    between atoms: C_4  and  S_28 
REMARK    2  A    between atoms: C_5  and  C_7 
REMARK    3  A    between atoms: C_7  and  N_8 
REMARK    4  A    between atoms: N_8  and  C_9 
REMARK    5  A    between atoms: C_9  and  C_10 
REMARK    6  A    between atoms: C_10  and  C_11 
REMARK    7  A    between atoms: N_14  and  C_17 
REMARK    8  A    between atoms: S_28  and  C_35 
REMARK    9  A    between atoms: C_29  and  C_35 
ROOT
HETATM    1  C           1     175.468 185.570 272.325  0.00  0.00    -0.008 A 
HETATM    2  C           1     174.391 186.393 272.033  0.00  0.00     0.130 A 
HETATM    3  N           1     173.725 186.370 270.858  0.00  0.00    -0.253 NA
HETATM    4  C           1     174.158 185.484 269.934  0.00  0.00     0.101 A 
HETATM    5  C           1     175.224 184.621 270.133  0.00  0.00     0.006 A 
HETATM    6  C           1     175.889 184.668 271.354  0.00  0.00     0.025 A 
HETATM    7  C           1     176.085 185.641 273.509  0.00  0.00    -0.024 A 
HETATM    8  C           1     177.295 186.326 273.625  0.00  0.00     0.014 A 
HETATM    9  C           1     177.939 186.400 274.860  0.00  0.00     0.023 A 
HETATM   10  C           1     177.372 185.791 275.980  0.00  0.00     0.044 A 
HETATM   11  C           1     176.162 185.106 275.864  0.00  0.00     0.023 A 
HETATM   12  C           1     175.518 185.032 274.629  0.00  0.00     0.014 A 
HETATM   13  C           1     177.978 185.860 277.143  0.00  0.00     0.099 C 
HETATM   14  N           1     178.512 185.922 278.168  0.00  0.00    -0.191 NA
ENDROOT
BRANCH   5  15
HETATM   15  C           1     175.648 183.665 269.063  0.00  0.00     0.311 C 
BRANCH  15  16
HETATM   16  N           1     176.941 184.046 268.561  0.00  0.00     0.087 N 
HETATM   17  H           1     177.177 184.978 268.905  0.00  0.00     0.316 HD
BRANCH  16  18
HETATM   18  C           1     176.863 184.069 267.126  0.00  0.00     0.270 C 
BRANCH  18  19
HETATM   19  C           1     175.787 183.098 266.660  0.00  0.00     0.034 C 
BRANCH  19  20
HETATM   20  C           1     176.181 182.512 265.310  0.00  0.00    -0.010 C 
HETATM   21  C           1     176.836 183.599 264.464  0.00  0.00     0.035 C 
HETATM   22  C           1     177.425 183.021 263.179  0.00  0.00     0.273 C 
HETATM   23  N           1     178.365 181.935 263.461  0.00  0.00     0.093 N 
HETATM   24  C           1     177.723 180.852 264.207  0.00  0.00     0.273 C 
HETATM   25  C           1     177.145 181.350 265.531  0.00  0.00     0.035 C 
BRANCH  23  26
HETATM   26  C           1     178.761 181.411 262.182  0.00  0.00     0.223 C 
HETATM   27  C           1     179.016 182.534 261.188  0.00  0.00     0.036 C 
HETATM   28  C           1     180.066 181.992 260.220  0.00  0.00     0.002 C 
HETATM   29  C           1     180.584 180.692 260.831  0.00  0.00     0.002 C 
HETATM   30  C           1     180.106 180.711 262.274  0.00  0.00     0.036 C 
ENDBRANCH  23  26
ENDBRANCH  19  20
ENDBRANCH  18  19
ENDBRANCH  16  18
ENDBRANCH  15  16
ENDBRANCH   5  15
BRANCH   4  31
HETATM   31  S           1     173.293 185.420 268.340  0.00  0.00    -0.105 SA
BRANCH  31  32
HETATM   32  C           1     174.381 186.644 267.557  0.00  0.00     0.119 C 
BRANCH  32  33
HETATM   33  C           1     173.699 187.977 267.534  0.00  0.00    -0.049 A 
HETATM   34  C           1     172.470 188.121 266.893  0.00  0.00     0.008 A 
HETATM   35  C           1     171.834 189.363 266.871  0.00  0.00     0.001 A 
HETATM   36  C           1     172.431 190.461 267.492  0.00  0.00     0.000 A 
HETATM   37  C           1     173.660 190.317 268.134  0.00  0.00     0.001 A 
HETATM   38  C           1     174.295 189.075 268.155  0.00  0.00     0.008 A 
ENDBRANCH  32  33
ENDBRANCH  31  32
ENDBRANCH   4  31
TORSDOF 9
ENDMDL
MODEL 5
REMARK VINA RESULT:      -7.7      3.157      8.259
REMARK  9 active torsions:
REMARK  status: ('A' for Active; 'I' for Inactive)
REMARK    1  A    between atoms: C_4  and  S_28 
REMARK    2  A    between atoms: C_5  and  C_7 
REMARK    3  A    between atoms: C_7  and  N_8 
REMARK    4  A    between atoms: N_8  and  C_9 
REMARK    5  A    between atoms: C_9  and  C_10 
REMARK    6  A    between atoms: C_10  and  C_11 
REMARK    7  A    between atoms: N_14  and  C_17 
REMARK    8  A    between atoms: S_28  and  C_35 
REMARK    9  A    between atoms: C_29  and  C_35 
ROOT
HETATM    1  C           1     175.613 185.686 272.479  0.00  0.00    -0.008 A 
HETATM    2  C           1     174.501 186.472 272.221  0.00  0.00     0.130 A 
HETATM    3  N           1     173.842 186.478 271.041  0.00  0.00    -0.253 NA
HETATM    4  C           1     174.318 185.661 270.077  0.00  0.00     0.101 A 
HETATM    5  C           1     175.422 184.837 270.241  0.00  0.00     0.006 A 
HETATM    6  C           1     176.079 184.854 271.466  0.00  0.00     0.025 A 
HETATM    7  C           1     176.221 185.726 273.668  0.00  0.00    -0.024 A 
HETATM    8  C           1     177.398 186.458 273.826  0.00  0.00     0.014 A 
HETATM    9  C           1     178.032 186.499 275.068  0.00  0.00     0.023 A 
HETATM   10  C           1     177.489 185.810 276.152  0.00  0.00     0.044 A 
HETATM   11  C           1     176.312 185.078 275.994  0.00  0.00     0.023 A 
HETATM   12  C           1     175.678 185.037 274.753  0.00  0.00     0.014 A 
HETATM   13  C           1     178.086 185.848 277.321  0.00  0.00     0.099 C 
HETATM   14  N           1     178.613 185.883 278.352  0.00  0.00    -0.191 NA
ENDROOT
BRANCH   5  15
HETATM   15  C           1     175.894 183.956 269.127  0.00  0.00     0.311 C 
BRANCH  15  16
HETATM   16  N           1     177.286 184.210 268.869  0.00  0.00     0.087 N 
HETATM   17  H           1     177.630 184.911 269.526  0.00  0.00     0.316 HD
BRANCH  16  18
HETATM   18  C           1     177.398 184.712 267.527  0.00  0.00     0.270 C 
BRANCH  18  19
HETATM   19  C           1     177.164 183.577 266.539  0.00  0.00     0.034 C 
BRANCH  19  20
HETATM   20  C           1     176.403 184.105 265.330  0.00  0.00    -0.010 C 
HETATM   21  C           1     176.666 183.193 264.135  0.00  0.00     0.035 C 
HETATM   22  C           1     175.776 183.562 262.950  0.00  0.00     0.273 C 
HETATM   23  N           1     174.360 183.552 263.319  0.00  0.00     0.093 N 
HETATM   24  C           1     174.086 184.483 264.414  0.00  0.00     0.273 C 
HETATM   25  C           1     174.913 184.146 265.654  0.00  0.00     0.035 C 
BRANCH  23  26
HETATM   26  C           1     173.645 184.016 262.160  0.00  0.00     0.223 C 
HETATM   27  C           1     172.180 183.613 262.228  0.00  0.00     0.036 C 
HETATM   28  C           1     171.423 184.691 261.453  0.00  0.00     0.002 C 
HETATM   29  C           1     172.423 185.816 261.196  0.00  0.00     0.002 C 
HETATM   30  C           1     173.590 185.533 262.128  0.00  0.00     0.036 C 
ENDBRANCH  23  26
ENDBRANCH  19  20
ENDBRANCH  18  19
ENDBRANCH  16  18
ENDBRANCH  15  16
ENDBRANCH   5  15
BRANCH   4  31
HETATM   31  S           1     173.464 185.637 268.477  0.00  0.00    -0.105 SA
BRANCH  31  32
HETATM   32  C           1     174.286 187.138 267.873  0.00  0.00     0.119 C 
BRANCH  32  33
HETATM   33  C           1     173.255 188.168 267.527  0.00  0.00    -0.049 A 
HETATM   34  C           1     172.109 187.799 266.823  0.00  0.00     0.008 A 
HETATM   35  C           1     171.148 188.758 266.501  0.00  0.00     0.001 A 
HETATM   36  C           1     171.335 190.086 266.882  0.00  0.00     0.000 A 
HETATM   37  C           1     172.481 190.456 267.586  0.00  0.00     0.001 A 
HETATM   38  C           1     173.442 189.497 267.909  0.00  0.00     0.008 A 
ENDBRANCH  32  33
ENDBRANCH  31  32
ENDBRANCH   4  31
TORSDOF 9
ENDMDL
MODEL 6
REMARK VINA RESULT:      -7.7      4.877      8.546
REMARK  9 active torsions:
REMARK  status: ('A' for Active; 'I' for Inactive)
REMARK    1  A    between atoms: C_4  and  S_28 
REMARK    2  A    between atoms: C_5  and  C_7 
REMARK    3  A    between atoms: C_7  and  N_8 
REMARK    4  A    between atoms: N_8  and  C_9 
REMARK    5  A    between atoms: C_9  and  C_10 
REMARK    6  A    between atoms: C_10  and  C_11 
REMARK    7  A    between atoms: N_14  and  C_17 
REMARK    8  A    between atoms: S_28  and  C_35 
REMARK    9  A    between atoms: C_29  and  C_35 
ROOT
HETATM    1  C           1     173.720 186.374 280.888  0.00  0.00    -0.008 A 
HETATM    2  C           1     174.751 186.905 280.129  0.00  0.00     0.130 A 
HETATM    3  N           1     174.675 187.104 278.795  0.00  0.00    -0.253 NA
HETATM    4  C           1     173.516 186.755 278.195  0.00  0.00     0.101 A 
HETATM    5  C           1     172.430 186.218 278.869  0.00  0.00     0.006 A 
HETATM    6  C           1     172.539 186.025 280.242  0.00  0.00     0.025 A 
HETATM    7  C           1     173.857 186.201 282.207  0.00  0.00    -0.024 A 
HETATM    8  C           1     174.137 184.935 282.720  0.00  0.00     0.014 A 
HETATM    9  C           1     174.280 184.755 284.096  0.00  0.00     0.023 A 
HETATM   10  C           1     174.145 185.842 284.959  0.00  0.00     0.044 A 
HETATM   11  C           1     173.865 187.109 284.446  0.00  0.00     0.023 A 
HETATM   12  C           1     173.722 187.289 283.070  0.00  0.00     0.014 A 
HETATM   13  C           1     174.279 185.674 286.254  0.00  0.00     0.099 C 
HETATM   14  N           1     174.399 185.525 287.396  0.00  0.00    -0.191 NA
ENDROOT
BRANCH   5  15
HETATM   15  C           1     171.176 185.855 278.138  0.00  0.00     0.311 C 
BRANCH  15  16
HETATM   16  N           1     170.080 186.636 278.647  0.00  0.00     0.087 N 
HETATM   17  H           1     169.265 186.034 278.775  0.00  0.00     0.316 HD
BRANCH  16  18
HETATM   18  C           1     169.779 187.651 277.675  0.00  0.00     0.270 C 
BRANCH  18  19
HETATM   19  C           1     170.393 188.974 278.115  0.00  0.00     0.034 C 
BRANCH  19  20
HETATM   20  C           1     170.159 189.171 279.607  0.00  0.00    -0.010 C 
HETATM   21  C           1     171.487 189.490 280.286  0.00  0.00     0.035 C 
HETATM   22  C           1     171.282 189.889 281.745  0.00  0.00     0.273 C 
HETATM   23  N           1     170.346 191.006 281.870  0.00  0.00     0.093 N 
HETATM   24  C           1     169.043 190.680 281.290  0.00  0.00     0.273 C 
HETATM   25  C           1     169.166 190.312 279.812  0.00  0.00     0.035 C 
BRANCH  23  26
HETATM   26  C           1     170.158 191.211 283.281  0.00  0.00     0.223 C 
HETATM   27  C           1     169.468 192.540 283.551  0.00  0.00     0.036 C 
HETATM   28  C           1     168.689 192.339 284.850  0.00  0.00     0.002 C 
HETATM   29  C           1     168.728 190.842 285.147  0.00  0.00     0.002 C 
HETATM   30  C           1     169.191 190.190 283.854  0.00  0.00     0.036 C 
ENDBRANCH  23  26
ENDBRANCH  19  20
ENDBRANCH  18  19
ENDBRANCH  16  18
ENDBRANCH  15  16
ENDBRANCH   5  15
BRANCH   4  31
HETATM   31  S           1     173.371 187.005 276.403  0.00  0.00    -0.105 SA
BRANCH  31  32
HETATM   32  C           1     174.202 185.445 275.991  0.00  0.00     0.119 C 
BRANCH  32  33
HETATM   33  C           1     175.603 185.728 275.545  0.00  0.00    -0.049 A 
HETATM   34  C           1     175.848 186.145 274.237  0.00  0.00     0.008 A 
HETATM   35  C           1     177.153 186.409 273.821  0.00  0.00     0.001 A 
HETATM   36  C           1     178.214 186.253 274.713  0.00  0.00     0.000 A 
HETATM   37  C           1     177.969 185.835 276.021  0.00  0.00     0.001 A 
HETATM   38  C           1     176.664 185.572 276.437  0.00  0.00     0.008 A 
ENDBRANCH  32  33
ENDBRANCH  31  32
ENDBRANCH   4  31
TORSDOF 9
ENDMDL
MODEL 7
REMARK VINA RESULT:      -7.5      4.449      8.255
REMARK  9 active torsions:
REMARK  status: ('A' for Active; 'I' for Inactive)
REMARK    1  A    between atoms: C_4  and  S_28 
REMARK    2  A    between atoms: C_5  and  C_7 
REMARK    3  A    between atoms: C_7  and  N_8 
REMARK    4  A    between atoms: N_8  and  C_9 
REMARK    5  A    between atoms: C_9  and  C_10 
REMARK    6  A    between atoms: C_10  and  C_11 
REMARK    7  A    between atoms: N_14  and  C_17 
REMARK    8  A    between atoms: S_28  and  C_35 
REMARK    9  A    between atoms: C_29  and  C_35 
ROOT
HETATM    1  C           1     173.658 186.415 281.049  0.00  0.00    -0.008 A 
HETATM    2  C           1     174.689 186.999 280.329  0.00  0.00     0.130 A 
HETATM    3  N           1     174.664 187.174 278.990  0.00  0.00    -0.253 NA
HETATM    4  C           1     173.558 186.745 278.343  0.00  0.00     0.101 A 
HETATM    5  C           1     172.477 186.151 278.975  0.00  0.00     0.006 A 
HETATM    6  C           1     172.532 185.984 280.355  0.00  0.00     0.025 A 
HETATM    7  C           1     173.743 186.269 282.375  0.00  0.00    -0.024 A 
HETATM    8  C           1     174.076 185.030 282.921  0.00  0.00     0.014 A 
HETATM    9  C           1     174.165 184.879 284.305  0.00  0.00     0.023 A 
HETATM   10  C           1     173.923 185.967 285.143  0.00  0.00     0.044 A 
HETATM   11  C           1     173.589 187.207 284.597  0.00  0.00     0.023 A 
HETATM   12  C           1     173.501 187.358 283.213  0.00  0.00     0.014 A 
HETATM   13  C           1     174.006 185.825 286.445  0.00  0.00     0.099 C 
HETATM   14  N           1     174.080 185.700 287.595  0.00  0.00    -0.191 NA
ENDROOT
BRANCH   5  15
HETATM   15  C           1     171.283 185.700 278.193  0.00  0.00     0.311 C 
BRANCH  15  16
HETATM   16  N           1     170.163 186.551 278.492  0.00  0.00     0.087 N 
HETATM   17  H           1     169.351 185.976 278.720  0.00  0.00     0.316 HD
BRANCH  16  18
HETATM   18  C           1     169.883 187.334 277.320  0.00  0.00     0.270 C 
BRANCH  18  19
HETATM   19  C           1     169.485 188.744 277.734  0.00  0.00     0.034 C 
BRANCH  19  20
HETATM   20  C           1     170.533 189.734 277.244  0.00  0.00    -0.010 C 
HETATM   21  C           1     170.768 189.517 275.752  0.00  0.00     0.035 C 
HETATM   22  C           1     171.664 190.608 275.168  0.00  0.00     0.273 C 
HETATM   23  N           1     171.122 191.942 275.428  0.00  0.00     0.093 N 
HETATM   24  C           1     170.966 192.187 276.862  0.00  0.00     0.273 C 
HETATM   25  C           1     170.043 191.155 277.508  0.00  0.00     0.035 C 
BRANCH  23  26
HETATM   26  C           1     172.100 192.871 274.929  0.00  0.00     0.223 C 
HETATM   27  C           1     173.296 192.957 275.865  0.00  0.00     0.036 C 
HETATM   28  C           1     174.486 193.314 274.976  0.00  0.00     0.002 C 
HETATM   29  C           1     174.007 193.158 273.534  0.00  0.00     0.002 C 
HETATM   30  C           1     172.708 192.375 273.628  0.00  0.00     0.036 C 
ENDBRANCH  23  26
ENDBRANCH  19  20
ENDBRANCH  18  19
ENDBRANCH  16  18
ENDBRANCH  15  16
ENDBRANCH   5  15
BRANCH   4  31
HETATM   31  S           1     173.483 186.961 276.543  0.00  0.00    -0.105 SA
BRANCH  31  32
HETATM   32  C           1     174.359 185.410 276.193  0.00  0.00     0.119 C 
BRANCH  32  33
HETATM   33  C           1     175.727 185.716 275.667  0.00  0.00    -0.049 A 
HETATM   34  C           1     175.896 186.071 274.330  0.00  0.00     0.008 A 
HETATM   35  C           1     177.171 186.356 273.839  0.00  0.00     0.001 A 
HETATM   36  C           1     178.276 186.285 274.688  0.00  0.00     0.000 A 
HETATM   37  C           1     178.106 185.929 276.025  0.00  0.00     0.001 A 
HETATM   38  C           1     176.832 185.644 276.516  0.00  0.00     0.008 A 
ENDBRANCH  32  33
ENDBRANCH  31  32
ENDBRANCH   4  31
TORSDOF 9
ENDMDL
MODEL 8
REMARK VINA RESULT:      -7.4      1.425      2.268
REMARK  9 active torsions:
REMARK  status: ('A' for Active; 'I' for Inactive)
REMARK    1  A    between atoms: C_4  and  S_28 
REMARK    2  A    between atoms: C_5  and  C_7 
REMARK    3  A    between atoms: C_7  and  N_8 
REMARK    4  A    between atoms: N_8  and  C_9 
REMARK    5  A    between atoms: C_9  and  C_10 
REMARK    6  A    between atoms: C_10  and  C_11 
REMARK    7  A    between atoms: N_14  and  C_17 
REMARK    8  A    between atoms: S_28  and  C_35 
REMARK    9  A    between atoms: C_29  and  C_35 
ROOT
HETATM    1  C           1     175.279 185.488 272.377  0.00  0.00    -0.008 A 
HETATM    2  C           1     175.668 184.591 271.395  0.00  0.00     0.130 A 
HETATM    3  N           1     175.042 184.462 270.205  0.00  0.00    -0.253 NA
HETATM    4  C           1     173.979 185.268 269.988  0.00  0.00     0.101 A 
HETATM    5  C           1     173.516 186.196 270.909  0.00  0.00     0.006 A 
HETATM    6  C           1     174.181 186.304 272.125  0.00  0.00     0.025 A 
HETATM    7  C           1     175.940 185.567 273.536  0.00  0.00    -0.024 A 
HETATM    8  C           1     175.423 184.955 274.678  0.00  0.00     0.014 A 
HETATM    9  C           1     176.114 185.037 275.887  0.00  0.00     0.023 A 
HETATM   10  C           1     177.323 185.730 275.954  0.00  0.00     0.044 A 
HETATM   11  C           1     177.840 186.342 274.813  0.00  0.00     0.023 A 
HETATM   12  C           1     177.149 186.260 273.603  0.00  0.00     0.014 A 
HETATM   13  C           1     177.973 185.808 277.092  0.00  0.00     0.099 C 
HETATM   14  N           1     178.547 185.877 278.096  0.00  0.00    -0.191 NA
ENDROOT
BRANCH   5  15
HETATM   15  C           1     172.331 187.057 270.601  0.00  0.00     0.311 C 
BRANCH  15  16
HETATM   16  N           1     172.698 188.442 270.723  0.00  0.00     0.087 N 
HETATM   17  H           1     173.673 188.510 271.017  0.00  0.00     0.316 HD
BRANCH  16  18
HETATM   18  C           1     171.852 189.032 271.723  0.00  0.00     0.270 C 
BRANCH  18  19
HETATM   19  C           1     172.712 189.697 272.789  0.00  0.00     0.034 C 
BRANCH  19  20
HETATM   20  C           1     172.380 189.107 274.153  0.00  0.00    -0.010 C 
HETATM   21  C           1     171.250 188.094 273.998  0.00  0.00     0.035 C 
HETATM   22  C           1     171.008 187.330 275.298  0.00  0.00     0.273 C 
HETATM   23  N           1     172.232 186.685 275.776  0.00  0.00     0.093 N 
HETATM   24  C           1     173.299 187.661 276.001  0.00  0.00     0.273 C 
HETATM   25  C           1     173.625 188.436 274.726  0.00  0.00     0.035 C 
BRANCH  23  26
HETATM   26  C           1     171.901 186.097 277.047  0.00  0.00     0.223 C 
HETATM   27  C           1     173.155 185.652 277.784  0.00  0.00     0.036 C 
HETATM   28  C           1     172.814 185.758 279.270  0.00  0.00     0.002 C 
HETATM   29  C           1     171.487 186.509 279.354  0.00  0.00     0.002 C 
HETATM   30  C           1     171.292 187.130 277.980  0.00  0.00     0.036 C 
ENDBRANCH  23  26
ENDBRANCH  19  20
ENDBRANCH  18  19
ENDBRANCH  16  18
ENDBRANCH  15  16
ENDBRANCH   5  15
BRANCH   4  31
HETATM   31  S           1     173.109 185.129 268.403  0.00  0.00    -0.105 SA
BRANCH  31  32
HETATM   32  C           1     174.363 186.069 267.488  0.00  0.00     0.119 C 
BRANCH  32  33
HETATM   33  C           1     174.474 185.531 266.094  0.00  0.00    -0.049 A 
HETATM   34  C           1     175.699 185.062 265.623  0.00  0.00     0.008 A 
HETATM   35  C           1     175.802 184.561 264.325  0.00  0.00     0.001 A 
HETATM   36  C           1     174.679 184.531 263.499  0.00  0.00     0.000 A 
HETATM   37  C           1     173.453 185.000 263.970  0.00  0.00     0.001 A 
HETATM   38  C           1     173.350 185.501 265.268  0.00  0.00     0.008 A 
ENDBRANCH  32  33
ENDBRANCH  31  32
ENDBRANCH   4  31
TORSDOF 9
ENDMDL
MODEL 9
REMARK VINA RESULT:      -7.4      7.466     12.232
REMARK  9 active torsions:
REMARK  status: ('A' for Active; 'I' for Inactive)
REMARK    1  A    between atoms: C_4  and  S_28 
REMARK    2  A    between atoms: C_5  and  C_7 
REMARK    3  A    between atoms: C_7  and  N_8 
REMARK    4  A    between atoms: N_8  and  C_9 
REMARK    5  A    between atoms: C_9  and  C_10 
REMARK    6  A    between atoms: C_10  and  C_11 
REMARK    7  A    between atoms: N_14  and  C_17 
REMARK    8  A    between atoms: S_28  and  C_35 
REMARK    9  A    between atoms: C_29  and  C_35 
ROOT
HETATM    1  C           1     173.443 186.815 279.575  0.00  0.00    -0.008 A 
HETATM    2  C           1     173.006 188.108 279.820  0.00  0.00     0.130 A 
HETATM    3  N           1     172.605 188.548 281.033  0.00  0.00    -0.253 NA
HETATM    4  C           1     172.643 187.654 282.045  0.00  0.00     0.101 A 
HETATM    5  C           1     173.065 186.341 281.898  0.00  0.00     0.006 A 
HETATM    6  C           1     173.472 185.918 280.637  0.00  0.00     0.025 A 
HETATM    7  C           1     173.827 186.441 278.350  0.00  0.00    -0.024 A 
HETATM    8  C           1     172.962 185.703 277.543  0.00  0.00     0.014 A 
HETATM    9  C           1     173.363 185.312 276.265  0.00  0.00     0.023 A 
HETATM   10  C           1     174.629 185.662 275.794  0.00  0.00     0.044 A 
HETATM   11  C           1     175.494 186.400 276.601  0.00  0.00     0.023 A 
HETATM   12  C           1     175.093 186.791 277.879  0.00  0.00     0.014 A 
HETATM   13  C           1     175.006 185.295 274.592  0.00  0.00     0.099 C 
HETATM   14  N           1     175.339 184.970 273.530  0.00  0.00    -0.191 NA
ENDROOT
BRANCH   5  15
HETATM   15  C           1     173.082 185.405 283.066  0.00  0.00     0.311 C 
BRANCH  15  16
HETATM   16  N           1     174.423 185.294 283.574  0.00  0.00     0.087 N 
HETATM   17  H           1     174.881 184.487 283.150  0.00  0.00     0.316 HD
BRANCH  16  18
HETATM   18  C           1     174.337 185.105 284.996  0.00  0.00     0.270 C 
BRANCH  18  19
HETATM   19  C           1     172.879 184.919 285.397  0.00  0.00     0.034 C 
BRANCH  19  20
HETATM   20  C           1     172.745 185.062 286.907  0.00  0.00    -0.010 C 
HETATM   21  C           1     174.076 185.529 287.487  0.00  0.00     0.035 C 
HETATM   22  C           1     173.944 185.875 288.969  0.00  0.00     0.273 C 
HETATM   23  N           1     172.895 186.869 289.195  0.00  0.00     0.093 N 
HETATM   24  C           1     171.597 186.396 288.711  0.00  0.00     0.273 C 
HETATM   25  C           1     171.642 186.070 287.219  0.00  0.00     0.035 C 
BRANCH  23  26
HETATM   26  C           1     172.798 187.026 290.622  0.00  0.00     0.223 C 
HETATM   27  C           1     171.576 187.851 290.997  0.00  0.00     0.036 C 
HETATM   28  C           1     171.161 187.358 292.383  0.00  0.00     0.002 C 
HETATM   29  C           1     171.975 186.094 292.651  0.00  0.00     0.002 C 
HETATM   30  C           1     172.543 185.691 291.299  0.00  0.00     0.036 C 
ENDBRANCH  23  26
ENDBRANCH  19  20
ENDBRANCH  18  19
ENDBRANCH  16  18
ENDBRANCH  15  16
ENDBRANCH   5  15
BRANCH   4  31
HETATM   31  S           1     172.113 188.202 283.691  0.00  0.00    -0.105 SA
BRANCH  31  32
HETATM   32  C           1     172.602 189.928 283.412  0.00  0.00     0.119 C 
BRANCH  32  33
HETATM   33  C           1     171.384 190.752 283.125  0.00  0.00    -0.049 A 
HETATM   34  C           1     170.115 190.228 283.365  0.00  0.00     0.008 A 
HETATM   35  C           1     168.981 190.995 283.097  0.00  0.00     0.001 A 
HETATM   36  C           1     169.118 192.287 282.590  0.00  0.00     0.000 A 
HETATM   37  C           1     170.388 192.811 282.350  0.00  0.00     0.001 A 
HETATM   38  C           1     171.522 192.044 282.617  0.00  0.00     0.008 A 
ENDBRANCH  32  33
ENDBRANCH  31  32
ENDBRANCH   4  31
TORSDOF 9
ENDMDL
