REMARK  11 active torsions:
REMARK  status: ('A' for Active; 'I' for Inactive)
REMARK    1  A    between atoms: N2_7  and  C6_8 
REMARK    2  A    between atoms: C6_8  and  C7_9 
REMARK    3  A    between atoms: C7_9  and  N3_10 
REMARK    4  A    between atoms: N3_10  and  C8_11 
REMARK    5  A    between atoms: C8_11  and  C9_12 
REMARK    6  A    between atoms: C13_16  and  O1_17 
REMARK    7  A    between atoms: C15_19  and  O2_20 
REMARK    8  A    between atoms: C17_22  and  O3_23 
REMARK    9  A    between atoms: C20_27  and  S1_28 
REMARK   10  A    between atoms: S1_28  and  C21_29 
REMARK   11  A    between atoms: C21_29  and  C22_30 
ROOT
HETATM    1  C9  UNL     1       2.021   0.737  -1.278  1.00  0.00     0.006 A 
HETATM    2  C10 UNL     1       0.852   1.240  -1.867  1.00  0.00     0.025 A 
HETATM    3  C11 UNL     1      -0.054   0.372  -2.492  1.00  0.00    -0.001 A 
HETATM    4  C12 UNL     1      -1.245   0.845  -3.042  1.00  0.00     0.053 A 
HETATM    5  C13 UNL     1      -2.197  -0.045  -3.570  1.00  0.00     0.105 A 
HETATM    6  C15 UNL     1      -1.938  -1.441  -3.554  1.00  0.00     0.137 A 
HETATM    7  C17 UNL     1      -0.690  -1.911  -3.071  1.00  0.00     0.134 A 
HETATM    8  C19 UNL     1       0.228  -1.004  -2.522  1.00  0.00     0.104 A 
HETATM    9  N4  UNL     1       1.393  -1.463  -1.991  1.00  0.00    -0.238 NA
HETATM   10  C20 UNL     1       2.288  -0.646  -1.377  1.00  0.00     0.102 A 
ENDROOT
BRANCH   1  11
HETATM   11  C8  UNL     1       2.933   1.663  -0.505  1.00  0.00     0.311 C 
BRANCH  11  12
HETATM   12  N3  UNL     1       2.863   1.342   0.928  1.00  0.00     0.089 N 
HETATM   13  H16 UNL     1       3.739   1.696   1.384  1.00  0.00     0.316 HD
BRANCH  12  14
HETATM   14  C7  UNL     1       1.710   1.974   1.594  1.00  0.00     0.300 C 
BRANCH  14  15
HETATM   15  C6  UNL     1       1.040   0.971   2.551  1.00  0.00     0.302 C 
BRANCH  15  16
HETATM   16  N2  UNL     1      -0.319   0.621   2.076  1.00  0.00     0.093 N 
HETATM   17  C3  UNL     1      -0.720  -0.719   2.559  1.00  0.00     0.302 C 
HETATM   18  C2  UNL     1      -2.242  -0.963   2.431  1.00  0.00     0.302 C 
HETATM   19  N1  UNL     1      -2.887  -0.048   1.469  1.00  0.00     0.087 N 
HETATM   20  C1  UNL     1      -2.531  -0.377   0.076  1.00  0.00     0.310 C 
HETATM   21  C4  UNL     1      -2.650   1.381   1.794  1.00  0.00     0.302 C 
HETATM   22  C5  UNL     1      -1.303   1.630   2.503  1.00  0.00     0.302 C 
ENDBRANCH  15  16
ENDBRANCH  14  15
ENDBRANCH  12  14
ENDBRANCH  11  12
ENDBRANCH   1  11
BRANCH  10  23
HETATM   23  S1  UNL     1       3.790  -1.377  -0.710  1.00  0.00    -0.105 SA
BRANCH  23  24
HETATM   24  C21 UNL     1       2.982  -2.110   0.768  1.00  0.00     0.119 C 
BRANCH  24  25
HETATM   25  C22 UNL     1       3.712  -1.892   2.075  1.00  0.00    -0.049 A 
HETATM   26  C23 UNL     1       3.186  -2.498   3.227  1.00  0.00     0.008 A 
HETATM   27  C24 UNL     1       3.803  -2.324   4.468  1.00  0.00     0.001 A 
HETATM   28  C25 UNL     1       4.959  -1.551   4.573  1.00  0.00     0.000 A 
HETATM   29  C26 UNL     1       5.498  -0.947   3.437  1.00  0.00     0.001 A 
HETATM   30  C27 UNL     1       4.878  -1.110   2.195  1.00  0.00     0.008 A 
ENDBRANCH  24  25
ENDBRANCH  23  24
ENDBRANCH  10  23
BRANCH   5  31
HETATM   31  O1  UNL     1      -3.409   0.446  -4.070  1.00  0.00    -0.353 OA
HETATM   32  C14 UNL     1      -3.541   1.656  -4.815  1.00  0.00     0.210 C 
ENDBRANCH   5  31
BRANCH   7  33
HETATM   33  O3  UNL     1      -0.308  -3.267  -3.093  1.00  0.00    -0.351 OA
HETATM   34  C18 UNL     1      -0.864  -4.280  -3.920  1.00  0.00     0.210 C 
ENDBRANCH   7  33
BRANCH   6  35
HETATM   35  O2  UNL     1      -2.883  -2.393  -3.980  1.00  0.00    -0.351 OA
HETATM   36  C16 UNL     1      -4.152  -2.144  -4.569  1.00  0.00     0.210 C 
ENDBRANCH   6  35
TORSDOF 11
