MODEL 1
REMARK VINA RESULT:      -7.3      0.000      0.000
REMARK  8 active torsions:
REMARK  status: ('A' for Active; 'I' for Inactive)
REMARK    1  A    between atoms: C_4  and  S_20 
REMARK    2  A    between atoms: C_5  and  C_8 
REMARK    3  A    between atoms: C_8  and  N_9 
REMARK    4  A    between atoms: S_20  and  C_21 
REMARK    5  A    between atoms: C_21  and  C_22 
REMARK    6  A    between atoms: N_9  and  C_11 
REMARK    7  A    between atoms: C_11  and  C_12 
REMARK    8  A    between atoms: C_12  and  N_13 
ROOT
HETATM    1  C           1     173.539 189.238 283.580  0.00  0.00     0.137 A 
HETATM    2  C           1     172.966 189.667 282.394  0.00  0.00     0.029 A 
HETATM    3  N           1     174.401 188.200 283.665  0.00  0.00    -0.252 NA
HETATM    4  C           1     174.701 187.566 282.511  0.00  0.00     0.101 A 
HETATM    5  C           1     174.180 187.921 281.277  0.00  0.00     0.006 A 
HETATM    6  C           1     173.295 188.994 281.222  0.00  0.00     0.032 A 
HETATM    7 Br           1     171.774 191.122 282.368  0.00  0.00    -0.050 Br
ENDROOT
BRANCH   5   8
HETATM    8  C           1     174.558 187.172 280.038  0.00  0.00     0.311 C 
BRANCH   8   9
HETATM    9  N           1     173.377 186.620 279.431  0.00  0.00     0.089 N 
HETATM   10  H           1     173.121 185.757 279.909  0.00  0.00     0.316 HD
BRANCH   9  11
HETATM   11  C           1     173.686 186.334 278.056  0.00  0.00     0.300 C 
BRANCH  11  12
HETATM   12  C           1     175.079 186.856 277.729  0.00  0.00     0.302 C 
BRANCH  12  13
HETATM   13  N           1     175.603 186.148 276.592  0.00  0.00     0.093 N 
HETATM   14  C           1     174.447 185.713 275.788  0.00  0.00     0.302 C 
HETATM   15  C           1     174.850 185.163 274.404  0.00  0.00     0.302 C 
HETATM   16  N           1     175.662 186.111 273.621  0.00  0.00     0.087 N 
HETATM   17  C           1     176.168 185.391 272.484  0.00  0.00     0.310 C 
HETATM   18  C           1     176.818 186.546 274.425  0.00  0.00     0.302 C 
HETATM   19  C           1     176.415 187.098 275.810  0.00  0.00     0.302 C 
ENDBRANCH  12  13
ENDBRANCH  11  12
ENDBRANCH   9  11
ENDBRANCH   8   9
ENDBRANCH   5   8
BRANCH   4  20
HETATM   20  S           1     175.855 186.166 282.580  0.00  0.00    -0.105 SA
BRANCH  20  21
HETATM   21  C           1     174.541 184.925 282.728  0.00  0.00     0.119 C 
BRANCH  21  22
HETATM   22  C           1     174.030 184.903 284.135  0.00  0.00    -0.049 A 
HETATM   23  C           1     172.684 185.164 284.393  0.00  0.00     0.008 A 
HETATM   24  C           1     172.208 185.143 285.704  0.00  0.00     0.001 A 
HETATM   25  C           1     173.078 184.861 286.758  0.00  0.00     0.000 A 
HETATM   26  C           1     174.424 184.600 286.500  0.00  0.00     0.001 A 
HETATM   27  C           1     174.899 184.622 285.189  0.00  0.00     0.008 A 
ENDBRANCH  21  22
ENDBRANCH  20  21
ENDBRANCH   4  20
TORSDOF 8
ENDMDL
MODEL 2
REMARK VINA RESULT:      -6.9      8.130     11.332
REMARK  8 active torsions:
REMARK  status: ('A' for Active; 'I' for Inactive)
REMARK    1  A    between atoms: C_4  and  S_20 
REMARK    2  A    between atoms: C_5  and  C_8 
REMARK    3  A    between atoms: C_8  and  N_9 
REMARK    4  A    between atoms: S_20  and  C_21 
REMARK    5  A    between atoms: C_21  and  C_22 
REMARK    6  A    between atoms: N_9  and  C_11 
REMARK    7  A    between atoms: C_11  and  C_12 
REMARK    8  A    between atoms: C_12  and  N_13 
ROOT
HETATM    1  C           1     176.634 184.009 269.301  0.00  0.00     0.137 A 
HETATM    2  C           1     176.444 184.477 268.011  0.00  0.00     0.029 A 
HETATM    3  N           1     176.145 184.623 270.401  0.00  0.00    -0.252 NA
HETATM    4  C           1     175.434 185.754 270.198  0.00  0.00     0.101 A 
HETATM    5  C           1     175.191 186.298 268.947  0.00  0.00     0.006 A 
HETATM    6  C           1     175.708 185.643 267.834  0.00  0.00     0.032 A 
HETATM    7 Br           1     177.163 183.556 266.535  0.00  0.00    -0.050 Br
ENDROOT
BRANCH   5   8
HETATM    8  C           1     174.395 187.556 268.798  0.00  0.00     0.311 C 
BRANCH   8   9
HETATM    9  N           1     175.249 188.614 268.327  0.00  0.00     0.089 N 
HETATM   10  H           1     176.221 188.384 268.536  0.00  0.00     0.316 HD
BRANCH   9  11
HETATM   11  C           1     174.880 189.816 269.024  0.00  0.00     0.300 C 
BRANCH  11  12
HETATM   12  C           1     175.647 189.897 270.338  0.00  0.00     0.302 C 
BRANCH  12  13
HETATM   13  N           1     174.963 190.785 271.238  0.00  0.00     0.093 N 
HETATM   14  C           1     175.404 192.153 270.910  0.00  0.00     0.302 C 
HETATM   15  C           1     174.568 193.240 271.619  0.00  0.00     0.302 C 
HETATM   16  N           1     173.123 193.115 271.360  0.00  0.00     0.087 N 
HETATM   17  C           1     172.456 194.016 272.260  0.00  0.00     0.310 C 
HETATM   18  C           1     172.682 191.748 271.688  0.00  0.00     0.302 C 
HETATM   19  C           1     173.518 190.660 270.979  0.00  0.00     0.302 C 
ENDBRANCH  12  13
ENDBRANCH  11  12
ENDBRANCH   9  11
ENDBRANCH   8   9
ENDBRANCH   5   8
BRANCH   4  20
HETATM   20  S           1     174.759 186.611 271.649  0.00  0.00    -0.105 SA
BRANCH  20  21
HETATM   21  C           1     174.843 185.144 272.713  0.00  0.00     0.119 C 
BRANCH  21  22
HETATM   22  C           1     175.785 185.402 273.847  0.00  0.00    -0.049 A 
HETATM   23  C           1     175.493 184.917 275.122  0.00  0.00     0.008 A 
HETATM   24  C           1     176.372 185.157 276.177  0.00  0.00     0.001 A 
HETATM   25  C           1     177.543 185.883 275.959  0.00  0.00     0.000 A 
HETATM   26  C           1     177.835 186.369 274.684  0.00  0.00     0.001 A 
HETATM   27  C           1     176.956 186.128 273.629  0.00  0.00     0.008 A 
ENDBRANCH  21  22
ENDBRANCH  20  21
ENDBRANCH   4  20
TORSDOF 8
ENDMDL
MODEL 3
REMARK VINA RESULT:      -6.9      2.626      8.505
REMARK  8 active torsions:
REMARK  status: ('A' for Active; 'I' for Inactive)
REMARK    1  A    between atoms: C_4  and  S_20 
REMARK    2  A    between atoms: C_5  and  C_8 
REMARK    3  A    between atoms: C_8  and  N_9 
REMARK    4  A    between atoms: S_20  and  C_21 
REMARK    5  A    between atoms: C_21  and  C_22 
REMARK    6  A    between atoms: N_9  and  C_11 
REMARK    7  A    between atoms: C_11  and  C_12 
REMARK    8  A    between atoms: C_12  and  N_13 
ROOT
HETATM    1  C           1     171.252 189.156 280.189  0.00  0.00     0.137 A 
HETATM    2  C           1     171.914 189.168 281.407  0.00  0.00     0.029 A 
HETATM    3  N           1     171.305 188.126 279.317  0.00  0.00    -0.252 NA
HETATM    4  C           1     172.052 187.061 279.681  0.00  0.00     0.101 A 
HETATM    5  C           1     172.748 186.980 280.876  0.00  0.00     0.006 A 
HETATM    6  C           1     172.674 188.057 281.754  0.00  0.00     0.032 A 
HETATM    7 Br           1     171.784 190.649 282.560  0.00  0.00    -0.050 Br
ENDROOT
BRANCH   5   8
HETATM    8  C           1     173.556 185.767 281.214  0.00  0.00     0.311 C 
BRANCH   8   9
HETATM    9  N           1     174.769 186.167 281.877  0.00  0.00     0.089 N 
HETATM   10  H           1     175.534 186.184 281.204  0.00  0.00     0.316 HD
BRANCH   9  11
HETATM   11  C           1     175.050 185.193 282.898  0.00  0.00     0.300 C 
BRANCH  11  12
HETATM   12  C           1     175.214 185.897 284.239  0.00  0.00     0.302 C 
BRANCH  12  13
HETATM   13  N           1     174.099 185.576 285.089  0.00  0.00     0.093 N 
HETATM   14  C           1     174.651 185.250 286.416  0.00  0.00     0.302 C 
HETATM   15  C           1     173.565 185.131 287.506  0.00  0.00     0.302 C 
HETATM   16  N           1     172.720 186.334 287.610  0.00  0.00     0.087 N 
HETATM   17  C           1     171.618 185.999 288.471  0.00  0.00     0.310 C 
HETATM   18  C           1     172.168 186.660 286.283  0.00  0.00     0.302 C 
HETATM   19  C           1     173.254 186.779 285.192  0.00  0.00     0.302 C 
ENDBRANCH  12  13
ENDBRANCH  11  12
ENDBRANCH   9  11
ENDBRANCH   8   9
ENDBRANCH   5   8
BRANCH   4  20
HETATM   20  S           1     172.149 185.654 278.538  0.00  0.00    -0.105 SA
BRANCH  20  21
HETATM   21  C           1     172.686 186.668 277.133  0.00  0.00     0.119 C 
BRANCH  21  22
HETATM   22  C           1     174.061 186.252 276.713  0.00  0.00    -0.049 A 
HETATM   23  C           1     175.180 186.808 277.335  0.00  0.00     0.008 A 
HETATM   24  C           1     176.461 186.419 276.944  0.00  0.00     0.001 A 
HETATM   25  C           1     176.624 185.474 275.930  0.00  0.00     0.000 A 
HETATM   26  C           1     175.506 184.918 275.308  0.00  0.00     0.001 A 
HETATM   27  C           1     174.225 185.308 275.700  0.00  0.00     0.008 A 
ENDBRANCH  21  22
ENDBRANCH  20  21
ENDBRANCH   4  20
TORSDOF 8
ENDMDL
MODEL 4
REMARK VINA RESULT:      -6.8      7.323     10.624
REMARK  8 active torsions:
REMARK  status: ('A' for Active; 'I' for Inactive)
REMARK    1  A    between atoms: C_4  and  S_20 
REMARK    2  A    between atoms: C_5  and  C_8 
REMARK    3  A    between atoms: C_8  and  N_9 
REMARK    4  A    between atoms: S_20  and  C_21 
REMARK    5  A    between atoms: C_21  and  C_22 
REMARK    6  A    between atoms: N_9  and  C_11 
REMARK    7  A    between atoms: C_11  and  C_12 
REMARK    8  A    between atoms: C_12  and  N_13 
ROOT
HETATM    1  C           1     175.321 185.033 275.457  0.00  0.00     0.137 A 
HETATM    2  C           1     176.489 185.762 275.308  0.00  0.00     0.029 A 
HETATM    3  N           1     174.282 185.094 274.595  0.00  0.00    -0.252 NA
HETATM    4  C           1     174.422 185.921 273.536  0.00  0.00     0.101 A 
HETATM    5  C           1     175.551 186.690 273.301  0.00  0.00     0.006 A 
HETATM    6  C           1     176.603 186.605 274.207  0.00  0.00     0.032 A 
HETATM    7 Br           1     177.886 185.615 276.560  0.00  0.00    -0.050 Br
ENDROOT
BRANCH   5   8
HETATM    8  C           1     175.636 187.585 272.106  0.00  0.00     0.311 C 
BRANCH   8   9
HETATM    9  N           1     175.626 188.959 272.533  0.00  0.00     0.089 N 
HETATM   10  H           1     175.229 189.021 273.470  0.00  0.00     0.316 HD
BRANCH   9  11
HETATM   11  C           1     174.803 189.697 271.613  0.00  0.00     0.300 C 
BRANCH  11  12
HETATM   12  C           1     175.657 190.190 270.451  0.00  0.00     0.302 C 
BRANCH  12  13
HETATM   13  N           1     174.892 190.133 269.235  0.00  0.00     0.093 N 
HETATM   14  C           1     175.014 188.760 268.715  0.00  0.00     0.302 C 
HETATM   15  C           1     174.043 188.469 267.551  0.00  0.00     0.302 C 
HETATM   16  N           1     172.636 188.739 267.894  0.00  0.00     0.087 N 
HETATM   17  C           1     171.884 188.667 266.670  0.00  0.00     0.310 C 
HETATM   18  C           1     172.513 190.113 268.414  0.00  0.00     0.302 C 
HETATM   19  C           1     173.485 190.404 269.579  0.00  0.00     0.302 C 
ENDBRANCH  12  13
ENDBRANCH  11  12
ENDBRANCH   9  11
ENDBRANCH   8   9
ENDBRANCH   5   8
BRANCH   4  20
HETATM   20  S           1     173.050 186.033 272.352  0.00  0.00    -0.105 SA
BRANCH  20  21
HETATM   21  C           1     173.196 184.303 271.826  0.00  0.00     0.119 C 
BRANCH  21  22
HETATM   22  C           1     174.400 184.146 270.952  0.00  0.00    -0.049 A 
HETATM   23  C           1     174.618 185.033 269.897  0.00  0.00     0.008 A 
HETATM   24  C           1     175.741 184.887 269.083  0.00  0.00     0.001 A 
HETATM   25  C           1     176.647 183.853 269.323  0.00  0.00     0.000 A 
HETATM   26  C           1     176.429 182.966 270.377  0.00  0.00     0.001 A 
HETATM   27  C           1     175.306 183.113 271.191  0.00  0.00     0.008 A 
ENDBRANCH  21  22
ENDBRANCH  20  21
ENDBRANCH   4  20
TORSDOF 8
ENDMDL
MODEL 5
REMARK VINA RESULT:      -6.7      2.588      9.253
REMARK  8 active torsions:
REMARK  status: ('A' for Active; 'I' for Inactive)
REMARK    1  A    between atoms: C_4  and  S_20 
REMARK    2  A    between atoms: C_5  and  C_8 
REMARK    3  A    between atoms: C_8  and  N_9 
REMARK    4  A    between atoms: S_20  and  C_21 
REMARK    5  A    between atoms: C_21  and  C_22 
REMARK    6  A    between atoms: N_9  and  C_11 
REMARK    7  A    between atoms: C_11  and  C_12 
REMARK    8  A    between atoms: C_12  and  N_13 
ROOT
HETATM    1  C           1     170.837 187.313 276.855  0.00  0.00     0.137 A 
HETATM    2  C           1     170.292 187.329 278.129  0.00  0.00     0.029 A 
HETATM    3  N           1     172.152 187.127 276.603  0.00  0.00    -0.252 NA
HETATM    4  C           1     172.954 186.948 277.675  0.00  0.00     0.101 A 
HETATM    5  C           1     172.502 186.947 278.985  0.00  0.00     0.006 A 
HETATM    6  C           1     171.143 187.142 279.212  0.00  0.00     0.032 A 
HETATM    7 Br           1     168.447 187.595 278.386  0.00  0.00    -0.050 Br
ENDROOT
BRANCH   5   8
HETATM    8  C           1     173.450 186.743 280.125  0.00  0.00     0.311 C 
BRANCH   8   9
HETATM    9  N           1     173.096 185.543 280.835  0.00  0.00     0.089 N 
HETATM   10  H           1     172.198 185.199 280.495  0.00  0.00     0.316 HD
BRANCH   9  11
HETATM   11  C           1     172.985 185.877 282.229  0.00  0.00     0.300 C 
BRANCH  11  12
HETATM   12  C           1     173.974 185.043 283.032  0.00  0.00     0.302 C 
BRANCH  12  13
HETATM   13  N           1     174.209 185.669 284.305  0.00  0.00     0.093 N 
HETATM   14  C           1     172.889 185.903 284.918  0.00  0.00     0.302 C 
HETATM   15  C           1     172.981 186.337 286.396  0.00  0.00     0.302 C 
HETATM   16  N           1     173.746 185.390 287.227  0.00  0.00     0.087 N 
HETATM   17  C           1     173.961 186.027 288.498  0.00  0.00     0.310 C 
HETATM   18  C           1     175.065 185.156 286.615  0.00  0.00     0.302 C 
HETATM   19  C           1     174.974 184.722 285.135  0.00  0.00     0.302 C 
ENDBRANCH  12  13
ENDBRANCH  11  12
ENDBRANCH   9  11
ENDBRANCH   8   9
ENDBRANCH   5   8
BRANCH   4  20
HETATM   20  S           1     174.727 186.694 277.382  0.00  0.00    -0.105 SA
BRANCH  20  21
HETATM   21  C           1     174.474 185.249 276.315  0.00  0.00     0.119 C 
BRANCH  21  22
HETATM   22  C           1     175.168 185.467 275.006  0.00  0.00    -0.049 A 
HETATM   23  C           1     174.493 185.224 273.810  0.00  0.00     0.008 A 
HETATM   24  C           1     175.139 185.428 272.591  0.00  0.00     0.001 A 
HETATM   25  C           1     176.461 185.873 272.568  0.00  0.00     0.000 A 
HETATM   26  C           1     177.136 186.116 273.764  0.00  0.00     0.001 A 
HETATM   27  C           1     176.489 185.912 274.983  0.00  0.00     0.008 A 
ENDBRANCH  21  22
ENDBRANCH  20  21
ENDBRANCH   4  20
TORSDOF 8
ENDMDL
MODEL 6
REMARK VINA RESULT:      -6.6      7.235     10.755
REMARK  8 active torsions:
REMARK  status: ('A' for Active; 'I' for Inactive)
REMARK    1  A    between atoms: C_4  and  S_20 
REMARK    2  A    between atoms: C_5  and  C_8 
REMARK    3  A    between atoms: C_8  and  N_9 
REMARK    4  A    between atoms: S_20  and  C_21 
REMARK    5  A    between atoms: C_21  and  C_22 
REMARK    6  A    between atoms: N_9  and  C_11 
REMARK    7  A    between atoms: C_11  and  C_12 
REMARK    8  A    between atoms: C_12  and  N_13 
ROOT
HETATM    1  C           1     175.289 185.133 275.561  0.00  0.00     0.137 A 
HETATM    2  C           1     176.533 185.699 275.339  0.00  0.00     0.029 A 
HETATM    3  N           1     174.259 185.216 274.690  0.00  0.00    -0.252 NA
HETATM    4  C           1     174.488 185.896 273.545  0.00  0.00     0.101 A 
HETATM    5  C           1     175.697 186.496 273.233  0.00  0.00     0.006 A 
HETATM    6  C           1     176.738 186.393 274.151  0.00  0.00     0.032 A 
HETATM    7 Br           1     177.911 185.534 276.610  0.00  0.00    -0.050 Br
ENDROOT
BRANCH   5   8
HETATM    8  C           1     175.879 187.234 271.944  0.00  0.00     0.311 C 
BRANCH   8   9
HETATM    9  N           1     175.884 188.650 272.198  0.00  0.00     0.089 N 
HETATM   10  H           1     175.491 188.831 273.121  0.00  0.00     0.316 HD
BRANCH   9  11
HETATM   11  C           1     175.062 189.275 271.197  0.00  0.00     0.300 C 
BRANCH  11  12
HETATM   12  C           1     175.774 190.508 270.653  0.00  0.00     0.302 C 
BRANCH  12  13
HETATM   13  N           1     174.809 191.538 270.381  0.00  0.00     0.093 N 
HETATM   14  C           1     173.525 190.865 270.119  0.00  0.00     0.302 C 
HETATM   15  C           1     172.333 191.845 270.061  0.00  0.00     0.302 C 
HETATM   16  N           1     172.212 192.676 271.271  0.00  0.00     0.087 N 
HETATM   17  C           1     171.236 193.693 270.986  0.00  0.00     0.310 C 
HETATM   18  C           1     173.496 193.349 271.534  0.00  0.00     0.302 C 
HETATM   19  C           1     174.689 192.369 271.592  0.00  0.00     0.302 C 
ENDBRANCH  12  13
ENDBRANCH  11  12
ENDBRANCH   9  11
ENDBRANCH   8   9
ENDBRANCH   5   8
BRANCH   4  20
HETATM   20  S           1     173.132 186.032 272.346  0.00  0.00    -0.105 SA
BRANCH  20  21
HETATM   21  C           1     173.184 184.275 271.897  0.00  0.00     0.119 C 
BRANCH  21  22
HETATM   22  C           1     174.290 184.043 270.915  0.00  0.00    -0.049 A 
HETATM   23  C           1     174.313 184.745 269.710  0.00  0.00     0.008 A 
HETATM   24  C           1     175.344 184.530 268.797  0.00  0.00     0.001 A 
HETATM   25  C           1     176.353 183.610 269.087  0.00  0.00     0.000 A 
HETATM   26  C           1     176.330 182.908 270.292  0.00  0.00     0.001 A 
HETATM   27  C           1     175.299 183.124 271.206  0.00  0.00     0.008 A 
ENDBRANCH  21  22
ENDBRANCH  20  21
ENDBRANCH   4  20
TORSDOF 8
ENDMDL
MODEL 7
REMARK VINA RESULT:      -6.6      7.824     12.052
REMARK  8 active torsions:
REMARK  status: ('A' for Active; 'I' for Inactive)
REMARK    1  A    between atoms: C_4  and  S_20 
REMARK    2  A    between atoms: C_5  and  C_8 
REMARK    3  A    between atoms: C_8  and  N_9 
REMARK    4  A    between atoms: S_20  and  C_21 
REMARK    5  A    between atoms: C_21  and  C_22 
REMARK    6  A    between atoms: N_9  and  C_11 
REMARK    7  A    between atoms: C_11  and  C_12 
REMARK    8  A    between atoms: C_12  and  N_13 
ROOT
HETATM    1  C           1     174.176 188.142 270.183  0.00  0.00     0.137 A 
HETATM    2  C           1     174.275 188.138 268.801  0.00  0.00     0.029 A 
HETATM    3  N           1     174.607 187.132 270.970  0.00  0.00    -0.252 NA
HETATM    4  C           1     175.163 186.072 270.344  0.00  0.00     0.101 A 
HETATM    5  C           1     175.306 185.976 268.969  0.00  0.00     0.006 A 
HETATM    6  C           1     174.852 187.032 268.186  0.00  0.00     0.032 A 
HETATM    7 Br           1     173.646 189.590 267.783  0.00  0.00    -0.050 Br
ENDROOT
BRANCH   5   8
HETATM    8  C           1     175.933 184.769 268.344  0.00  0.00     0.311 C 
BRANCH   8   9
HETATM    9  N           1     177.198 185.131 267.762  0.00  0.00     0.089 N 
HETATM   10  H           1     177.109 186.032 267.292  0.00  0.00     0.316 HD
BRANCH   9  11
HETATM   11  C           1     177.542 184.119 266.801  0.00  0.00     0.300 C 
BRANCH  11  12
HETATM   12  C           1     176.291 183.342 266.411  0.00  0.00     0.302 C 
BRANCH  12  13
HETATM   13  N           1     176.491 182.720 265.130  0.00  0.00     0.093 N 
HETATM   14  C           1     176.788 183.799 264.172  0.00  0.00     0.302 C 
HETATM   15  C           1     177.278 183.271 262.806  0.00  0.00     0.302 C 
HETATM   16  N           1     178.446 182.380 262.919  0.00  0.00     0.087 N 
HETATM   17  C           1     178.638 181.775 261.628  0.00  0.00     0.310 C 
HETATM   18  C           1     178.149 181.301 263.878  0.00  0.00     0.302 C 
HETATM   19  C           1     177.659 181.829 265.244  0.00  0.00     0.302 C 
ENDBRANCH  12  13
ENDBRANCH  11  12
ENDBRANCH   9  11
ENDBRANCH   8   9
ENDBRANCH   5   8
BRANCH   4  20
HETATM   20  S           1     175.756 184.692 271.364  0.00  0.00    -0.105 SA
BRANCH  20  21
HETATM   21  C           1     174.905 185.265 272.860  0.00  0.00     0.119 C 
BRANCH  21  22
HETATM   22  C           1     175.901 185.450 273.962  0.00  0.00    -0.049 A 
HETATM   23  C           1     177.070 186.176 273.732  0.00  0.00     0.008 A 
HETATM   24  C           1     177.998 186.349 274.758  0.00  0.00     0.001 A 
HETATM   25  C           1     177.757 185.796 276.017  0.00  0.00     0.000 A 
HETATM   26  C           1     176.588 185.070 276.247  0.00  0.00     0.001 A 
HETATM   27  C           1     175.661 184.897 275.220  0.00  0.00     0.008 A 
ENDBRANCH  21  22
ENDBRANCH  20  21
ENDBRANCH   4  20
TORSDOF 8
ENDMDL
MODEL 8
REMARK VINA RESULT:      -6.6      2.922      9.338
REMARK  8 active torsions:
REMARK  status: ('A' for Active; 'I' for Inactive)
REMARK    1  A    between atoms: C_4  and  S_20 
REMARK    2  A    between atoms: C_5  and  C_8 
REMARK    3  A    between atoms: C_8  and  N_9 
REMARK    4  A    between atoms: S_20  and  C_21 
REMARK    5  A    between atoms: C_21  and  C_22 
REMARK    6  A    between atoms: N_9  and  C_11 
REMARK    7  A    between atoms: C_11  and  C_12 
REMARK    8  A    between atoms: C_12  and  N_13 
ROOT
HETATM    1  C           1     172.616 190.233 281.765  0.00  0.00     0.137 A 
HETATM    2  C           1     171.714 190.213 282.816  0.00  0.00     0.029 A 
HETATM    3  N           1     173.426 189.198 281.451  0.00  0.00    -0.252 NA
HETATM    4  C           1     173.326 188.094 282.224  0.00  0.00     0.101 A 
HETATM    5  C           1     172.454 187.980 283.295  0.00  0.00     0.006 A 
HETATM    6  C           1     171.633 189.063 283.593  0.00  0.00     0.032 A 
HETATM    7 Br           1     170.624 191.703 283.181  0.00  0.00    -0.050 Br
ENDROOT
BRANCH   5   8
HETATM    8  C           1     172.397 186.725 284.108  0.00  0.00     0.311 C 
BRANCH   8   9
HETATM    9  N           1     173.213 186.876 285.284  0.00  0.00     0.089 N 
HETATM   10  H           1     173.922 187.590 285.115  0.00  0.00     0.316 HD
BRANCH   9  11
HETATM   11  C           1     173.853 185.614 285.536  0.00  0.00     0.300 C 
BRANCH  11  12
HETATM   12  C           1     173.142 184.904 286.681  0.00  0.00     0.302 C 
BRANCH  12  13
HETATM   13  N           1     172.776 185.864 287.687  0.00  0.00     0.093 N 
HETATM   14  C           1     171.469 185.446 288.224  0.00  0.00     0.302 C 
HETATM   15  C           1     171.059 186.229 289.489  0.00  0.00     0.302 C 
HETATM   16  N           1     172.071 186.165 290.559  0.00  0.00     0.087 N 
HETATM   17  C           1     171.684 187.121 291.560  0.00  0.00     0.310 C 
HETATM   18  C           1     173.378 186.582 290.022  0.00  0.00     0.302 C 
HETATM   19  C           1     173.788 185.798 288.756  0.00  0.00     0.302 C 
ENDBRANCH  12  13
ENDBRANCH  11  12
ENDBRANCH   9  11
ENDBRANCH   8   9
ENDBRANCH   5   8
BRANCH   4  20
HETATM   20  S           1     174.395 186.680 281.837  0.00  0.00    -0.105 SA
BRANCH  20  21
HETATM   21  C           1     174.902 187.341 280.226  0.00  0.00     0.119 C 
BRANCH  21  22
HETATM   22  C           1     174.125 186.663 279.140  0.00  0.00    -0.049 A 
HETATM   23  C           1     174.571 186.725 277.820  0.00  0.00     0.008 A 
HETATM   24  C           1     173.848 186.093 276.809  0.00  0.00     0.001 A 
HETATM   25  C           1     172.677 185.399 277.118  0.00  0.00     0.000 A 
HETATM   26  C           1     172.232 185.337 278.439  0.00  0.00     0.001 A 
HETATM   27  C           1     172.956 185.969 279.449  0.00  0.00     0.008 A 
ENDBRANCH  21  22
ENDBRANCH  20  21
ENDBRANCH   4  20
TORSDOF 8
ENDMDL
MODEL 9
REMARK VINA RESULT:      -6.5      2.317      3.154
REMARK  8 active torsions:
REMARK  status: ('A' for Active; 'I' for Inactive)
REMARK    1  A    between atoms: C_4  and  S_20 
REMARK    2  A    between atoms: C_5  and  C_8 
REMARK    3  A    between atoms: C_8  and  N_9 
REMARK    4  A    between atoms: S_20  and  C_21 
REMARK    5  A    between atoms: C_21  and  C_22 
REMARK    6  A    between atoms: N_9  and  C_11 
REMARK    7  A    between atoms: C_11  and  C_12 
REMARK    8  A    between atoms: C_12  and  N_13 
ROOT
HETATM    1  C           1     171.170 186.891 279.290  0.00  0.00     0.137 A 
HETATM    2  C           1     171.590 186.848 277.970  0.00  0.00     0.029 A 
HETATM    3  N           1     172.013 186.888 280.346  0.00  0.00    -0.252 NA
HETATM    4  C           1     173.334 186.841 280.067  0.00  0.00     0.101 A 
HETATM    5  C           1     173.849 186.797 278.781  0.00  0.00     0.006 A 
HETATM    6  C           1     172.956 186.801 277.715  0.00  0.00     0.032 A 
HETATM    7 Br           1     170.344 186.855 276.560  0.00  0.00    -0.050 Br
ENDROOT
BRANCH   5   8
HETATM    8  C           1     175.326 186.747 278.546  0.00  0.00     0.311 C 
BRANCH   8   9
HETATM    9  N           1     175.597 186.930 277.145  0.00  0.00     0.089 N 
HETATM   10  H           1     174.924 186.394 276.597  0.00  0.00     0.316 HD
BRANCH   9  11
HETATM   11  C           1     176.924 186.439 276.889  0.00  0.00     0.300 C 
BRANCH  11  12
HETATM   12  C           1     176.894 185.495 275.694  0.00  0.00     0.302 C 
BRANCH  12  13
HETATM   13  N           1     175.970 185.994 274.711  0.00  0.00     0.093 N 
HETATM   14  C           1     176.725 186.153 273.455  0.00  0.00     0.302 C 
HETATM   15  C           1     175.817 186.438 272.240  0.00  0.00     0.302 C 
HETATM   16  N           1     174.766 185.421 272.056  0.00  0.00     0.087 N 
HETATM   17  C           1     173.859 185.930 271.063  0.00  0.00     0.310 C 
HETATM   18  C           1     174.012 185.262 273.311  0.00  0.00     0.302 C 
HETATM   19  C           1     174.920 184.976 274.527  0.00  0.00     0.302 C 
ENDBRANCH  12  13
ENDBRANCH  11  12
ENDBRANCH   9  11
ENDBRANCH   8   9
ENDBRANCH   5   8
BRANCH   4  20
HETATM   20  S           1     174.501 186.837 281.457  0.00  0.00    -0.105 SA
BRANCH  20  21
HETATM   21  C           1     174.095 185.141 281.958  0.00  0.00     0.119 C 
BRANCH  21  22
HETATM   22  C           1     173.874 185.097 283.437  0.00  0.00    -0.049 A 
HETATM   23  C           1     172.607 185.356 283.962  0.00  0.00     0.008 A 
HETATM   24  C           1     172.401 185.314 285.340  0.00  0.00     0.001 A 
HETATM   25  C           1     173.461 185.013 286.196  0.00  0.00     0.000 A 
HETATM   26  C           1     174.728 184.753 285.671  0.00  0.00     0.001 A 
HETATM   27  C           1     174.933 184.796 284.293  0.00  0.00     0.008 A 
ENDBRANCH  21  22
ENDBRANCH  20  21
ENDBRANCH   4  20
TORSDOF 8
ENDMDL
