MODEL 1
REMARK VINA RESULT:      -8.4      0.000      0.000
REMARK  9 active torsions:
REMARK  status: ('A' for Active; 'I' for Inactive)
REMARK    1  A    between atoms: C_5  and  S_23 
REMARK    2  A    between atoms: C_6  and  C_8 
REMARK    3  A    between atoms: C_8  and  N_9 
REMARK    4  A    between atoms: N_9  and  C_10 
REMARK    5  A    between atoms: C_10  and  C_11 
REMARK    6  A    between atoms: C_11  and  C_12 
REMARK    7  A    between atoms: N_15  and  C_18 
REMARK    8  A    between atoms: S_23  and  C_30 
REMARK    9  A    between atoms: C_24  and  C_30 
ROOT
HETATM    1  C           1     173.459 186.479 287.965  0.00  0.00     0.310 C 
ENDROOT
BRANCH   1   2
HETATM    2  C           1     172.171 185.764 288.231  0.00  0.00     0.003 A 
HETATM    3  C           1     171.712 185.581 289.525  0.00  0.00     0.077 A 
HETATM    4  N           1     170.560 184.946 289.834  0.00  0.00    -0.360 N 
HETATM    5  C           1     169.835 184.474 288.796  0.00  0.00     0.089 A 
ATOM      6  HN          1     170.255 184.830 290.799  1.00  0.00     0.166 HD
HETATM    7  C           1     170.210 184.607 287.469  0.00  0.00     0.018 A 
HETATM    8  C           1     171.401 185.267 287.184  0.00  0.00     0.013 A 
BRANCH   3   9
HETATM    9  S           1     172.719 186.233 290.888  0.00  0.00    -0.107 SA
BRANCH   9  10
HETATM   10  C           1     171.757 187.766 291.035  0.00  0.00     0.119 C 
BRANCH  10  11
HETATM   11  C           1     170.617 187.551 291.980  0.00  0.00    -0.049 A 
HETATM   12  C           1     169.305 187.744 291.544  0.00  0.00     0.008 A 
HETATM   13  C           1     168.242 187.544 292.425  0.00  0.00     0.001 A 
HETATM   14  C           1     168.489 187.153 293.740  0.00  0.00     0.000 A 
HETATM   15  C           1     169.801 186.961 294.176  0.00  0.00     0.001 A 
HETATM   16  C           1     170.864 187.161 293.295  0.00  0.00     0.008 A 
ENDBRANCH  10  11
ENDBRANCH   9  10
ENDBRANCH   3   9
ENDBRANCH   1   2
BRANCH   1  17
HETATM   17  N           1     174.490 185.519 287.678  0.00  0.00     0.087 N 
HETATM   18  H           1     175.255 185.634 288.342  0.00  0.00     0.316 HD
BRANCH  17  19
HETATM   19  C           1     174.968 185.777 286.346  0.00  0.00     0.270 C 
BRANCH  19  20
HETATM   20  C           1     174.922 184.490 285.532  0.00  0.00     0.034 C 
BRANCH  20  21
HETATM   21  C           1     174.605 184.819 284.079  0.00  0.00    -0.010 C 
HETATM   22  C           1     173.188 185.375 283.988  0.00  0.00     0.035 C 
HETATM   23  C           1     172.887 185.901 282.587  0.00  0.00     0.273 C 
HETATM   24  N           1     173.872 186.900 282.168  0.00  0.00     0.093 N 
HETATM   25  C           1     175.229 186.352 282.179  0.00  0.00     0.273 C 
HETATM   26  C           1     175.614 185.842 283.566  0.00  0.00     0.035 C 
BRANCH  24  27
HETATM   27  C           1     173.546 187.233 280.807  0.00  0.00     0.223 C 
HETATM   28  C           1     174.782 187.178 279.922  0.00  0.00     0.036 C 
HETATM   29  C           1     174.272 186.809 278.529  0.00  0.00     0.002 C 
HETATM   30  C           1     172.811 186.398 278.702  0.00  0.00     0.002 C 
HETATM   31  C           1     172.631 186.184 280.197  0.00  0.00     0.036 C 
ENDBRANCH  24  27
ENDBRANCH  20  21
ENDBRANCH  19  20
ENDBRANCH  17  19
ENDBRANCH   1  17
TORSDOF 9
ENDMDL
MODEL 2
REMARK VINA RESULT:      -8.2      3.463     10.858
REMARK  9 active torsions:
REMARK  status: ('A' for Active; 'I' for Inactive)
REMARK    1  A    between atoms: C_5  and  S_23 
REMARK    2  A    between atoms: C_6  and  C_8 
REMARK    3  A    between atoms: C_8  and  N_9 
REMARK    4  A    between atoms: N_9  and  C_10 
REMARK    5  A    between atoms: C_10  and  C_11 
REMARK    6  A    between atoms: C_11  and  C_12 
REMARK    7  A    between atoms: N_15  and  C_18 
REMARK    8  A    between atoms: S_23  and  C_30 
REMARK    9  A    between atoms: C_24  and  C_30 
ROOT
HETATM    1  C           1     173.668 186.268 280.916  0.00  0.00     0.310 C 
ENDROOT
BRANCH   1   2
HETATM    2  C           1     172.663 187.299 280.506  0.00  0.00     0.003 A 
HETATM    3  C           1     171.871 187.114 279.384  0.00  0.00     0.077 A 
HETATM    4  N           1     170.946 188.003 278.961  0.00  0.00    -0.360 N 
HETATM    5  C           1     170.811 189.130 279.695  0.00  0.00     0.089 A 
ATOM      6  HN          1     170.381 187.834 278.130  1.00  0.00     0.166 HD
HETATM    7  C           1     171.555 189.404 280.830  0.00  0.00     0.018 A 
HETATM    8  C           1     172.498 188.468 281.241  0.00  0.00     0.013 A 
BRANCH   3   9
HETATM    9  S           1     172.087 185.586 278.428  0.00  0.00    -0.107 SA
BRANCH   9  10
HETATM   10  C           1     172.545 186.456 276.902  0.00  0.00     0.119 C 
BRANCH  10  11
HETATM   11  C           1     173.972 186.158 276.566  0.00  0.00    -0.049 A 
HETATM   12  C           1     174.275 185.296 275.511  0.00  0.00     0.008 A 
HETATM   13  C           1     175.606 185.018 275.198  0.00  0.00     0.001 A 
HETATM   14  C           1     176.633 185.600 275.939  0.00  0.00     0.000 A 
HETATM   15  C           1     176.330 186.462 276.994  0.00  0.00     0.001 A 
HETATM   16  C           1     175.000 186.740 277.307  0.00  0.00     0.008 A 
ENDBRANCH  10  11
ENDBRANCH   9  10
ENDBRANCH   3   9
ENDBRANCH   1   2
BRANCH   1  17
HETATM   17  N           1     174.870 186.920 281.360  0.00  0.00     0.087 N 
HETATM   18  H           1     175.549 186.933 280.601  0.00  0.00     0.316 HD
BRANCH  17  19
HETATM   19  C           1     175.397 186.159 282.462  0.00  0.00     0.270 C 
BRANCH  19  20
HETATM   20  C           1     174.601 184.870 282.617  0.00  0.00     0.034 C 
BRANCH  20  21
HETATM   21  C           1     174.124 184.737 284.057  0.00  0.00    -0.010 C 
HETATM   22  C           1     175.165 185.352 284.988  0.00  0.00     0.035 C 
HETATM   23  C           1     174.652 185.420 286.424  0.00  0.00     0.273 C 
HETATM   24  N           1     173.381 186.143 286.505  0.00  0.00     0.093 N 
HETATM   25  C           1     172.354 185.516 285.673  0.00  0.00     0.273 C 
HETATM   26  C           1     172.784 185.450 284.209  0.00  0.00     0.035 C 
BRANCH  24  27
HETATM   27  C           1     172.955 186.045 287.875  0.00  0.00     0.223 C 
HETATM   28  C           1     174.123 185.694 288.784  0.00  0.00     0.036 C 
HETATM   29  C           1     173.788 186.315 290.140  0.00  0.00     0.002 C 
HETATM   30  C           1     172.584 187.227 289.908  0.00  0.00     0.002 C 
HETATM   31  C           1     172.497 187.395 288.399  0.00  0.00     0.036 C 
ENDBRANCH  24  27
ENDBRANCH  20  21
ENDBRANCH  19  20
ENDBRANCH  17  19
ENDBRANCH   1  17
TORSDOF 9
ENDMDL
MODEL 3
REMARK VINA RESULT:      -8.0      2.210      4.471
REMARK  9 active torsions:
REMARK  status: ('A' for Active; 'I' for Inactive)
REMARK    1  A    between atoms: C_5  and  S_23 
REMARK    2  A    between atoms: C_6  and  C_8 
REMARK    3  A    between atoms: C_8  and  N_9 
REMARK    4  A    between atoms: N_9  and  C_10 
REMARK    5  A    between atoms: C_10  and  C_11 
REMARK    6  A    between atoms: C_11  and  C_12 
REMARK    7  A    between atoms: N_15  and  C_18 
REMARK    8  A    between atoms: S_23  and  C_30 
REMARK    9  A    between atoms: C_24  and  C_30 
ROOT
HETATM    1  C           1     172.596 187.064 283.914  0.00  0.00     0.310 C 
ENDROOT
BRANCH   1   2
HETATM    2  C           1     173.364 186.066 284.724  0.00  0.00     0.003 A 
HETATM    3  C           1     173.082 185.873 286.067  0.00  0.00     0.077 A 
HETATM    4  N           1     173.736 184.990 286.854  0.00  0.00    -0.360 N 
HETATM    5  C           1     174.716 184.268 286.267  0.00  0.00     0.089 A 
ATOM      6  HN          1     173.501 184.875 287.839  1.00  0.00     0.166 HD
HETATM    7  C           1     175.070 184.390 284.933  0.00  0.00     0.018 A 
HETATM    8  C           1     174.378 185.307 284.149  0.00  0.00     0.013 A 
BRANCH   3   9
HETATM    9  S           1     171.758 186.864 286.813  0.00  0.00    -0.107 SA
BRANCH   9  10
HETATM   10  C           1     172.879 187.756 287.929  0.00  0.00     0.119 C 
BRANCH  10  11
HETATM   11  C           1     172.503 187.468 289.349  0.00  0.00    -0.049 A 
HETATM   12  C           1     171.505 188.218 289.971  0.00  0.00     0.008 A 
HETATM   13  C           1     171.155 187.950 291.294  0.00  0.00     0.001 A 
HETATM   14  C           1     171.803 186.934 291.996  0.00  0.00     0.000 A 
HETATM   15  C           1     172.802 186.184 291.373  0.00  0.00     0.001 A 
HETATM   16  C           1     173.152 186.452 290.050  0.00  0.00     0.008 A 
ENDBRANCH  10  11
ENDBRANCH   9  10
ENDBRANCH   3   9
ENDBRANCH   1   2
BRANCH   1  17
HETATM   17  N           1     173.489 187.733 283.007  0.00  0.00     0.087 N 
HETATM   18  H           1     173.632 188.693 283.318  0.00  0.00     0.316 HD
BRANCH  17  19
HETATM   19  C           1     172.870 187.738 281.708  0.00  0.00     0.270 C 
BRANCH  19  20
HETATM   20  C           1     172.537 186.309 281.300  0.00  0.00     0.034 C 
BRANCH  20  21
HETATM   21  C           1     173.256 185.970 280.001  0.00  0.00    -0.010 C 
HETATM   22  C           1     172.225 185.770 278.895  0.00  0.00     0.035 C 
HETATM   23  C           1     172.897 185.620 277.532  0.00  0.00     0.273 C 
HETATM   24  N           1     173.771 186.758 277.237  0.00  0.00     0.093 N 
HETATM   25  C           1     174.811 186.911 278.255  0.00  0.00     0.273 C 
HETATM   26  C           1     174.208 187.108 279.645  0.00  0.00     0.035 C 
BRANCH  24  27
HETATM   27  C           1     174.419 186.448 275.992  0.00  0.00     0.223 C 
HETATM   28  C           1     175.195 187.647 275.469  0.00  0.00     0.036 C 
HETATM   29  C           1     176.355 187.065 274.661  0.00  0.00     0.002 C 
HETATM   30  C           1     176.376 185.566 274.961  0.00  0.00     0.002 C 
HETATM   31  C           1     175.495 185.393 276.188  0.00  0.00     0.036 C 
ENDBRANCH  24  27
ENDBRANCH  20  21
ENDBRANCH  19  20
ENDBRANCH  17  19
ENDBRANCH   1  17
TORSDOF 9
ENDMDL
MODEL 4
REMARK VINA RESULT:      -8.0      3.673     11.959
REMARK  9 active torsions:
REMARK  status: ('A' for Active; 'I' for Inactive)
REMARK    1  A    between atoms: C_5  and  S_23 
REMARK    2  A    between atoms: C_6  and  C_8 
REMARK    3  A    between atoms: C_8  and  N_9 
REMARK    4  A    between atoms: N_9  and  C_10 
REMARK    5  A    between atoms: C_10  and  C_11 
REMARK    6  A    between atoms: C_11  and  C_12 
REMARK    7  A    between atoms: N_15  and  C_18 
REMARK    8  A    between atoms: S_23  and  C_30 
REMARK    9  A    between atoms: C_24  and  C_30 
ROOT
HETATM    1  C           1     172.559 187.302 280.349  0.00  0.00     0.310 C 
ENDROOT
BRANCH   1   2
HETATM    2  C           1     171.819 187.142 279.057  0.00  0.00     0.003 A 
HETATM    3  C           1     172.478 186.749 277.904  0.00  0.00     0.077 A 
HETATM    4  N           1     171.871 186.586 276.708  0.00  0.00    -0.360 N 
HETATM    5  C           1     170.541 186.827 276.668  0.00  0.00     0.089 A 
ATOM      6  HN          1     172.388 186.296 275.880  1.00  0.00     0.166 HD
HETATM    7  C           1     169.796 187.223 277.767  0.00  0.00     0.018 A 
HETATM    8  C           1     170.451 187.381 278.984  0.00  0.00     0.013 A 
BRANCH   3   9
HETATM    9  S           1     174.263 186.436 278.004  0.00  0.00    -0.107 SA
BRANCH   9  10
HETATM   10  C           1     174.331 185.575 276.407  0.00  0.00     0.119 C 
BRANCH  10  11
HETATM   11  C           1     175.655 185.833 275.758  0.00  0.00    -0.049 A 
HETATM   12  C           1     176.801 185.972 276.542  0.00  0.00     0.008 A 
HETATM   13  C           1     178.034 186.212 275.936  0.00  0.00     0.001 A 
HETATM   14  C           1     178.123 186.313 274.548  0.00  0.00     0.000 A 
HETATM   15  C           1     176.976 186.174 273.764  0.00  0.00     0.001 A 
HETATM   16  C           1     175.743 185.934 274.369  0.00  0.00     0.008 A 
ENDBRANCH  10  11
ENDBRANCH   9  10
ENDBRANCH   3   9
ENDBRANCH   1   2
BRANCH   1  17
HETATM   17  N           1     172.471 186.084 281.107  0.00  0.00     0.087 N 
HETATM   18  H           1     171.531 185.698 281.021  0.00  0.00     0.316 HD
BRANCH  17  19
HETATM   19  C           1     172.732 186.406 282.484  0.00  0.00     0.270 C 
BRANCH  19  20
HETATM   20  C           1     173.128 185.142 283.236  0.00  0.00     0.034 C 
BRANCH  20  21
HETATM   21  C           1     172.795 185.304 284.713  0.00  0.00    -0.010 C 
HETATM   22  C           1     173.990 184.856 285.548  0.00  0.00     0.035 C 
HETATM   23  C           1     173.784 185.177 287.027  0.00  0.00     0.273 C 
HETATM   24  N           1     173.502 186.600 287.231  0.00  0.00     0.093 N 
HETATM   25  C           1     172.310 187.020 286.493  0.00  0.00     0.273 C 
HETATM   26  C           1     172.462 186.765 284.995  0.00  0.00     0.035 C 
BRANCH  24  27
HETATM   27  C           1     173.224 186.751 288.634  0.00  0.00     0.223 C 
HETATM   28  C           1     171.840 186.218 288.975  0.00  0.00     0.036 C 
HETATM   29  C           1     171.930 185.745 290.426  0.00  0.00     0.002 C 
HETATM   30  C           1     173.413 185.766 290.793  0.00  0.00     0.002 C 
HETATM   31  C           1     174.150 185.882 289.468  0.00  0.00     0.036 C 
ENDBRANCH  24  27
ENDBRANCH  20  21
ENDBRANCH  19  20
ENDBRANCH  17  19
ENDBRANCH   1  17
TORSDOF 9
ENDMDL
MODEL 5
REMARK VINA RESULT:      -7.9      5.756     14.068
REMARK  9 active torsions:
REMARK  status: ('A' for Active; 'I' for Inactive)
REMARK    1  A    between atoms: C_5  and  S_23 
REMARK    2  A    between atoms: C_6  and  C_8 
REMARK    3  A    between atoms: C_8  and  N_9 
REMARK    4  A    between atoms: N_9  and  C_10 
REMARK    5  A    between atoms: C_10  and  C_11 
REMARK    6  A    between atoms: C_11  and  C_12 
REMARK    7  A    between atoms: N_15  and  C_18 
REMARK    8  A    between atoms: S_23  and  C_30 
REMARK    9  A    between atoms: C_24  and  C_30 
ROOT
HETATM    1  C           1     174.268 185.742 276.952  0.00  0.00     0.310 C 
ENDROOT
BRANCH   1   2
HETATM    2  C           1     175.588 185.929 276.271  0.00  0.00     0.003 A 
HETATM    3  C           1     175.701 185.809 274.895  0.00  0.00     0.077 A 
HETATM    4  N           1     176.860 185.966 274.219  0.00  0.00    -0.360 N 
HETATM    5  C           1     177.955 186.256 274.957  0.00  0.00     0.089 A 
ATOM      6  HN          1     176.906 185.869 273.205  1.00  0.00     0.166 HD
HETATM    7  C           1     177.942 186.395 276.335  0.00  0.00     0.018 A 
HETATM    8  C           1     176.733 186.229 277.001  0.00  0.00     0.013 A 
BRANCH   3   9
HETATM    9  S           1     174.205 185.419 273.945  0.00  0.00    -0.107 SA
BRANCH   9  10
HETATM   10  C           1     174.906 185.980 272.367  0.00  0.00     0.119 C 
BRANCH  10  11
HETATM   11  C           1     175.344 184.794 271.566  0.00  0.00    -0.049 A 
HETATM   12  C           1     176.497 184.870 270.783  0.00  0.00     0.008 A 
HETATM   13  C           1     176.905 183.765 270.036  0.00  0.00     0.001 A 
HETATM   14  C           1     176.161 182.585 270.070  0.00  0.00     0.000 A 
HETATM   15  C           1     175.008 182.511 270.853  0.00  0.00     0.001 A 
HETATM   16  C           1     174.600 183.615 271.600  0.00  0.00     0.008 A 
ENDBRANCH  10  11
ENDBRANCH   9  10
ENDBRANCH   3   9
ENDBRANCH   1   2
BRANCH   1  17
HETATM   17  N           1     173.930 186.935 277.680  0.00  0.00     0.087 N 
HETATM   18  H           1     174.704 187.597 277.623  0.00  0.00     0.316 HD
BRANCH  17  19
HETATM   19  C           1     173.718 186.564 279.053  0.00  0.00     0.270 C 
BRANCH  19  20
HETATM   20  C           1     174.768 187.233 279.930  0.00  0.00     0.034 C 
BRANCH  20  21
HETATM   21  C           1     174.475 186.933 281.394  0.00  0.00    -0.010 C 
HETATM   22  C           1     173.411 185.843 281.478  0.00  0.00     0.035 C 
HETATM   23  C           1     173.219 185.367 282.916  0.00  0.00     0.273 C 
HETATM   24  N           1     174.482 184.916 283.504  0.00  0.00     0.093 N 
HETATM   25  C           1     175.487 185.981 283.496  0.00  0.00     0.273 C 
HETATM   26  C           1     175.760 186.480 282.079  0.00  0.00     0.035 C 
BRANCH  24  27
HETATM   27  C           1     174.191 184.600 284.876  0.00  0.00     0.223 C 
HETATM   28  C           1     175.210 185.236 285.809  0.00  0.00     0.036 C 
HETATM   29  C           1     174.466 185.484 287.121  0.00  0.00     0.002 C 
HETATM   30  C           1     172.986 185.239 286.828  0.00  0.00     0.002 C 
HETATM   31  C           1     172.878 185.228 285.311  0.00  0.00     0.036 C 
ENDBRANCH  24  27
ENDBRANCH  20  21
ENDBRANCH  19  20
ENDBRANCH  17  19
ENDBRANCH   1  17
TORSDOF 9
ENDMDL
MODEL 6
REMARK VINA RESULT:      -7.8      5.780     13.896
REMARK  9 active torsions:
REMARK  status: ('A' for Active; 'I' for Inactive)
REMARK    1  A    between atoms: C_5  and  S_23 
REMARK    2  A    between atoms: C_6  and  C_8 
REMARK    3  A    between atoms: C_8  and  N_9 
REMARK    4  A    between atoms: N_9  and  C_10 
REMARK    5  A    between atoms: C_10  and  C_11 
REMARK    6  A    between atoms: C_11  and  C_12 
REMARK    7  A    between atoms: N_15  and  C_18 
REMARK    8  A    between atoms: S_23  and  C_30 
REMARK    9  A    between atoms: C_24  and  C_30 
ROOT
HETATM    1  C           1     174.040 185.763 275.693  0.00  0.00     0.310 C 
ENDROOT
BRANCH   1   2
HETATM    2  C           1     175.507 185.987 275.493  0.00  0.00     0.003 A 
HETATM    3  C           1     175.967 186.882 274.541  0.00  0.00     0.077 A 
HETATM    4  N           1     177.275 187.131 274.311  0.00  0.00    -0.360 N 
HETATM    5  C           1     178.162 186.451 275.070  0.00  0.00     0.089 A 
ATOM      6  HN          1     177.576 187.797 273.600  1.00  0.00     0.166 HD
HETATM    7  C           1     177.800 185.536 276.046  0.00  0.00     0.018 A 
HETATM    8  C           1     176.445 185.303 276.259  0.00  0.00     0.013 A 
BRANCH   3   9
HETATM    9  S           1     174.740 187.774 273.543  0.00  0.00    -0.107 SA
BRANCH   9  10
HETATM   10  C           1     175.431 187.214 271.961  0.00  0.00     0.119 C 
BRANCH  10  11
HETATM   11  C           1     175.088 185.773 271.749  0.00  0.00    -0.049 A 
HETATM   12  C           1     176.079 184.871 271.357  0.00  0.00     0.008 A 
HETATM   13  C           1     175.759 183.528 271.160  0.00  0.00     0.001 A 
HETATM   14  C           1     174.450 183.085 271.352  0.00  0.00     0.000 A 
HETATM   15  C           1     173.460 183.988 271.743  0.00  0.00     0.001 A 
HETATM   16  C           1     173.779 185.330 271.941  0.00  0.00     0.008 A 
ENDBRANCH  10  11
ENDBRANCH   9  10
ENDBRANCH   3   9
ENDBRANCH   1   2
BRANCH   1  17
HETATM   17  N           1     173.544 186.685 276.677  0.00  0.00     0.087 N 
HETATM   18  H           1     174.313 187.255 277.027  0.00  0.00     0.316 HD
BRANCH  17  19
HETATM   19  C           1     172.989 185.914 277.758  0.00  0.00     0.270 C 
BRANCH  19  20
HETATM   20  C           1     172.030 186.782 278.561  0.00  0.00     0.034 C 
BRANCH  20  21
HETATM   21  C           1     172.216 186.505 280.047  0.00  0.00    -0.010 C 
HETATM   22  C           1     173.478 185.671 280.246  0.00  0.00     0.035 C 
HETATM   23  C           1     173.818 185.527 281.728  0.00  0.00     0.273 C 
HETATM   24  N           1     173.942 186.834 282.378  0.00  0.00     0.093 N 
HETATM   25  C           1     172.708 187.611 282.257  0.00  0.00     0.273 C 
HETATM   26  C           1     172.326 187.829 280.794  0.00  0.00     0.035 C 
BRANCH  24  27
HETATM   27  C           1     174.154 186.564 283.774  0.00  0.00     0.223 C 
HETATM   28  C           1     172.840 186.242 284.471  0.00  0.00     0.036 C 
HETATM   29  C           1     173.206 185.306 285.623  0.00  0.00     0.002 C 
HETATM   30  C           1     174.662 184.900 285.399  0.00  0.00     0.002 C 
HETATM   31  C           1     174.971 185.297 283.964  0.00  0.00     0.036 C 
ENDBRANCH  24  27
ENDBRANCH  20  21
ENDBRANCH  19  20
ENDBRANCH  17  19
ENDBRANCH   1  17
TORSDOF 9
ENDMDL
MODEL 7
REMARK VINA RESULT:      -7.6     13.140     16.927
REMARK  9 active torsions:
REMARK  status: ('A' for Active; 'I' for Inactive)
REMARK    1  A    between atoms: C_5  and  S_23 
REMARK    2  A    between atoms: C_6  and  C_8 
REMARK    3  A    between atoms: C_8  and  N_9 
REMARK    4  A    between atoms: N_9  and  C_10 
REMARK    5  A    between atoms: C_10  and  C_11 
REMARK    6  A    between atoms: C_11  and  C_12 
REMARK    7  A    between atoms: N_15  and  C_18 
REMARK    8  A    between atoms: S_23  and  C_30 
REMARK    9  A    between atoms: C_24  and  C_30 
ROOT
HETATM    1  C           1     175.272 183.905 268.432  0.00  0.00     0.310 C 
ENDROOT
BRANCH   1   2
HETATM    2  C           1     174.207 183.579 269.433  0.00  0.00     0.003 A 
HETATM    3  C           1     174.427 183.758 270.789  0.00  0.00     0.077 A 
HETATM    4  N           1     173.511 183.484 271.743  0.00  0.00    -0.360 N 
HETATM    5  C           1     172.319 183.008 271.317  0.00  0.00     0.089 A 
ATOM      6  HN          1     173.708 183.628 272.733  1.00  0.00     0.166 HD
HETATM    7  C           1     172.006 182.796 269.985  0.00  0.00     0.018 A 
HETATM    8  C           1     172.970 183.088 269.027  0.00  0.00     0.013 A 
BRANCH   3   9
HETATM    9  S           1     176.042 184.399 271.316  0.00  0.00    -0.107 SA
BRANCH   9  10
HETATM   10  C           1     175.327 185.669 272.399  0.00  0.00     0.119 C 
BRANCH  10  11
HETATM   11  C           1     176.018 185.638 273.726  0.00  0.00    -0.049 A 
HETATM   12  C           1     175.432 184.967 274.801  0.00  0.00     0.008 A 
HETATM   13  C           1     176.075 184.938 276.038  0.00  0.00     0.001 A 
HETATM   14  C           1     177.302 185.581 276.203  0.00  0.00     0.000 A 
HETATM   15  C           1     177.887 186.252 275.128  0.00  0.00     0.001 A 
HETATM   16  C           1     177.244 186.281 273.891  0.00  0.00     0.008 A 
ENDBRANCH  10  11
ENDBRANCH   9  10
ENDBRANCH   3   9
ENDBRANCH   1   2
BRANCH   1  17
HETATM   17  N           1     174.672 184.513 267.275  0.00  0.00     0.087 N 
HETATM   18  H           1     175.035 184.071 266.432  0.00  0.00     0.316 HD
BRANCH  17  19
HETATM   19  C           1     175.031 185.906 267.279  0.00  0.00     0.270 C 
BRANCH  19  20
HETATM   20  C           1     173.797 186.750 266.987  0.00  0.00     0.034 C 
BRANCH  20  21
HETATM   21  C           1     173.690 187.868 268.015  0.00  0.00    -0.010 C 
HETATM   22  C           1     173.949 187.296 269.405  0.00  0.00     0.035 C 
HETATM   23  C           1     174.045 188.404 270.451  0.00  0.00     0.273 C 
HETATM   24  N           1     175.063 189.393 270.091  0.00  0.00     0.093 N 
HETATM   25  C           1     174.781 190.003 268.791  0.00  0.00     0.273 C 
HETATM   26  C           1     174.710 188.952 267.685  0.00  0.00     0.035 C 
BRANCH  24  27
HETATM   27  C           1     174.981 190.428 271.086  0.00  0.00     0.223 C 
HETATM   28  C           1     175.727 191.675 270.637  0.00  0.00     0.036 C 
HETATM   29  C           1     175.009 192.846 271.309  0.00  0.00     0.002 C 
HETATM   30  C           1     173.721 192.275 271.901  0.00  0.00     0.002 C 
HETATM   31  C           1     173.551 190.913 271.248  0.00  0.00     0.036 C 
ENDBRANCH  24  27
ENDBRANCH  20  21
ENDBRANCH  19  20
ENDBRANCH  17  19
ENDBRANCH   1  17
TORSDOF 9
ENDMDL
MODEL 8
REMARK VINA RESULT:      -7.6     13.326     17.967
REMARK  9 active torsions:
REMARK  status: ('A' for Active; 'I' for Inactive)
REMARK    1  A    between atoms: C_5  and  S_23 
REMARK    2  A    between atoms: C_6  and  C_8 
REMARK    3  A    between atoms: C_8  and  N_9 
REMARK    4  A    between atoms: N_9  and  C_10 
REMARK    5  A    between atoms: C_10  and  C_11 
REMARK    6  A    between atoms: C_11  and  C_12 
REMARK    7  A    between atoms: N_15  and  C_18 
REMARK    8  A    between atoms: S_23  and  C_30 
REMARK    9  A    between atoms: C_24  and  C_30 
ROOT
HETATM    1  C           1     175.678 185.441 272.385  0.00  0.00     0.310 C 
ENDROOT
BRANCH   1   2
HETATM    2  C           1     176.139 186.269 273.544  0.00  0.00     0.003 A 
HETATM    3  C           1     175.616 187.533 273.768  0.00  0.00     0.077 A 
HETATM    4  N           1     175.988 188.330 274.794  0.00  0.00    -0.360 N 
HETATM    5  C           1     176.926 187.837 275.632  0.00  0.00     0.089 A 
ATOM      6  HN          1     175.581 189.255 274.927  1.00  0.00     0.166 HD
HETATM    7  C           1     177.506 186.588 275.491  0.00  0.00     0.018 A 
HETATM    8  C           1     177.102 185.790 274.426  0.00  0.00     0.013 A 
BRANCH   3   9
HETATM    9  S           1     174.358 188.154 272.616  0.00  0.00    -0.107 SA
BRANCH   9  10
HETATM   10  C           1     175.568 188.964 271.532  0.00  0.00     0.119 C 
BRANCH  10  11
HETATM   11  C           1     175.148 188.800 270.105  0.00  0.00    -0.049 A 
HETATM   12  C           1     174.955 189.924 269.301  0.00  0.00     0.008 A 
HETATM   13  C           1     174.564 189.771 267.971  0.00  0.00     0.001 A 
HETATM   14  C           1     174.364 188.495 267.444  0.00  0.00     0.000 A 
HETATM   15  C           1     174.557 187.371 268.248  0.00  0.00     0.001 A 
HETATM   16  C           1     174.949 187.524 269.578  0.00  0.00     0.008 A 
ENDBRANCH  10  11
ENDBRANCH   9  10
ENDBRANCH   3   9
ENDBRANCH   1   2
BRANCH   1  17
HETATM   17  N           1     174.829 184.382 272.860  0.00  0.00     0.087 N 
HETATM   18  H           1     175.369 183.758 273.459  0.00  0.00     0.316 HD
BRANCH  17  19
HETATM   19  C           1     174.357 183.654 271.712  0.00  0.00     0.270 C 
BRANCH  19  20
HETATM   20  C           1     175.543 183.070 270.956  0.00  0.00     0.034 C 
BRANCH  20  21
HETATM   21  C           1     175.616 183.692 269.568  0.00  0.00    -0.010 C 
HETATM   22  C           1     177.045 184.155 269.302  0.00  0.00     0.035 C 
HETATM   23  C           1     177.220 184.609 267.854  0.00  0.00     0.273 C 
HETATM   24  N           1     176.821 183.560 266.912  0.00  0.00     0.093 N 
HETATM   25  C           1     175.427 183.164 267.111  0.00  0.00     0.273 C 
HETATM   26  C           1     175.187 182.658 268.533  0.00  0.00     0.035 C 
BRANCH  24  27
HETATM   27  C           1     176.928 184.143 265.602  0.00  0.00     0.223 C 
HETATM   28  C           1     177.302 183.092 264.568  0.00  0.00     0.036 C 
HETATM   29  C           1     176.690 183.574 263.253  0.00  0.00     0.002 C 
HETATM   30  C           1     175.761 184.733 263.613  0.00  0.00     0.002 C 
HETATM   31  C           1     175.577 184.644 265.120  0.00  0.00     0.036 C 
ENDBRANCH  24  27
ENDBRANCH  20  21
ENDBRANCH  19  20
ENDBRANCH  17  19
ENDBRANCH   1  17
TORSDOF 9
ENDMDL
MODEL 9
REMARK VINA RESULT:      -7.5      6.418     14.679
REMARK  9 active torsions:
REMARK  status: ('A' for Active; 'I' for Inactive)
REMARK    1  A    between atoms: C_5  and  S_23 
REMARK    2  A    between atoms: C_6  and  C_8 
REMARK    3  A    between atoms: C_8  and  N_9 
REMARK    4  A    between atoms: N_9  and  C_10 
REMARK    5  A    between atoms: C_10  and  C_11 
REMARK    6  A    between atoms: C_11  and  C_12 
REMARK    7  A    between atoms: N_15  and  C_18 
REMARK    8  A    between atoms: S_23  and  C_30 
REMARK    9  A    between atoms: C_24  and  C_30 
ROOT
HETATM    1  C           1     174.308 185.236 274.879  0.00  0.00     0.310 C 
ENDROOT
BRANCH   1   2
HETATM    2  C           1     175.748 185.649 274.877  0.00  0.00     0.003 A 
HETATM    3  C           1     176.320 186.230 273.757  0.00  0.00     0.077 A 
HETATM    4  N           1     177.610 186.625 273.691  0.00  0.00    -0.360 N 
HETATM    5  C           1     178.360 186.429 274.798  0.00  0.00     0.089 A 
ATOM      6  HN          1     177.997 187.049 272.848  1.00  0.00     0.166 HD
HETATM    7  C           1     177.879 185.857 275.964  0.00  0.00     0.018 A 
HETATM    8  C           1     176.546 185.462 276.001  0.00  0.00     0.013 A 
BRANCH   3   9
HETATM    9  S           1     175.275 186.475 272.293  0.00  0.00    -0.107 SA
BRANCH   9  10
HETATM   10  C           1     175.436 188.283 272.324  0.00  0.00     0.119 C 
BRANCH  10  11
HETATM   11  C           1     175.218 188.827 270.946  0.00  0.00    -0.049 A 
HETATM   12  C           1     174.915 187.960 269.895  0.00  0.00     0.008 A 
HETATM   13  C           1     174.711 188.467 268.612  0.00  0.00     0.001 A 
HETATM   14  C           1     174.812 189.838 268.378  0.00  0.00     0.000 A 
HETATM   15  C           1     175.115 190.704 269.429  0.00  0.00     0.001 A 
HETATM   16  C           1     175.318 190.198 270.713  0.00  0.00     0.008 A 
ENDBRANCH  10  11
ENDBRANCH   9  10
ENDBRANCH   3   9
ENDBRANCH   1   2
BRANCH   1  17
HETATM   17  N           1     173.786 185.324 276.215  0.00  0.00     0.087 N 
HETATM   18  H           1     172.853 184.913 276.243  0.00  0.00     0.316 HD
BRANCH  17  19
HETATM   19  C           1     173.707 186.718 276.563  0.00  0.00     0.270 C 
BRANCH  19  20
HETATM   20  C           1     172.472 186.958 277.421  0.00  0.00     0.034 C 
BRANCH  20  21
HETATM   21  C           1     172.892 187.152 278.873  0.00  0.00    -0.010 C 
HETATM   22  C           1     172.330 186.010 279.713  0.00  0.00     0.035 C 
HETATM   23  C           1     172.879 186.049 281.138  0.00  0.00     0.273 C 
HETATM   24  N           1     174.343 186.038 281.147  0.00  0.00     0.093 N 
HETATM   25  C           1     174.892 187.174 280.405  0.00  0.00     0.273 C 
HETATM   26  C           1     174.414 187.177 278.954  0.00  0.00     0.035 C 
BRANCH  24  27
HETATM   27  C           1     174.732 186.185 282.523  0.00  0.00     0.223 C 
HETATM   28  C           1     173.693 186.978 283.301  0.00  0.00     0.036 C 
HETATM   29  C           1     173.780 186.469 284.739  0.00  0.00     0.002 C 
HETATM   30  C           1     174.663 185.222 284.699  0.00  0.00     0.002 C 
HETATM   31  C           1     174.747 184.840 283.230  0.00  0.00     0.036 C 
ENDBRANCH  24  27
ENDBRANCH  20  21
ENDBRANCH  19  20
ENDBRANCH  17  19
ENDBRANCH   1  17
TORSDOF 9
ENDMDL
