MODEL 1
REMARK VINA RESULT:      -8.5      0.000      0.000
REMARK  9 active torsions:
REMARK  status: ('A' for Active; 'I' for Inactive)
REMARK    1  A    between atoms: C_5  and  S_23 
REMARK    2  A    between atoms: C_6  and  C_8 
REMARK    3  A    between atoms: C_8  and  N_9 
REMARK    4  A    between atoms: N_9  and  C_10 
REMARK    5  A    between atoms: C_10  and  C_11 
REMARK    6  A    between atoms: C_14  and  C_22 
REMARK    7  A    between atoms: N_17  and  C_22 
REMARK    8  A    between atoms: S_23  and  C_30 
REMARK    9  A    between atoms: C_24  and  C_30 
ROOT
HETATM    1  C           1     175.325 186.833 281.034  0.00  0.00     0.311 C 
ENDROOT
BRANCH   1   2
HETATM    2  C           1     174.145 187.753 281.098  0.00  0.00     0.003 A 
HETATM    3  C           1     172.991 187.480 280.381  0.00  0.00     0.077 A 
HETATM    4  N           1     171.894 188.267 280.396  0.00  0.00    -0.360 N 
HETATM    5  C           1     171.956 189.378 281.162  0.00  0.00     0.089 A 
ATOM      6  HN          1     171.061 188.035 279.855  1.00  0.00     0.166 HD
HETATM    7  C           1     173.064 189.735 281.913  0.00  0.00     0.018 A 
HETATM    8  C           1     174.179 188.904 281.878  0.00  0.00     0.013 A 
BRANCH   3   9
HETATM    9  S           1     172.951 185.977 279.364  0.00  0.00    -0.107 SA
BRANCH   9  10
HETATM   10  C           1     173.092 186.880 277.796  0.00  0.00     0.119 C 
BRANCH  10  11
HETATM   11  C           1     174.267 186.364 277.026  0.00  0.00    -0.049 A 
HETATM   12  C           1     174.078 185.416 276.019  0.00  0.00     0.008 A 
HETATM   13  C           1     175.173 184.935 275.301  0.00  0.00     0.001 A 
HETATM   14  C           1     176.456 185.401 275.588  0.00  0.00     0.000 A 
HETATM   15  C           1     176.644 186.348 276.595  0.00  0.00     0.001 A 
HETATM   16  C           1     175.549 186.830 277.313  0.00  0.00     0.008 A 
ENDBRANCH  10  11
ENDBRANCH   9  10
ENDBRANCH   3   9
ENDBRANCH   1   2
BRANCH   1  17
HETATM   17  N           1     175.635 186.356 282.355  0.00  0.00     0.091 N 
HETATM   18  H           1     176.615 186.075 282.393  0.00  0.00     0.316 HD
BRANCH  17  19
HETATM   19  C           1     174.799 185.215 282.616  0.00  0.00     0.308 C 
BRANCH  19  20
HETATM   20  C           1     174.317 185.264 284.033  0.00  0.00    -0.030 A 
HETATM   21  C           1     172.962 185.454 284.303  0.00  0.00     0.009 A 
HETATM   22  C           1     172.514 185.498 285.624  0.00  0.00     0.009 A 
HETATM   23  C           1     173.422 185.353 286.673  0.00  0.00    -0.030 A 
HETATM   24  C           1     174.776 185.163 286.402  0.00  0.00     0.009 A 
HETATM   25  C           1     175.224 185.118 285.083  0.00  0.00     0.009 A 
BRANCH  23  26
HETATM   26  C           1     172.940 185.401 288.090  0.00  0.00     0.311 C 
BRANCH  26  27
HETATM   27  N           1     173.730 186.345 288.833  0.00  0.00     0.092 N 
HETATM   28  C           1     172.855 187.401 289.335  0.00  0.00     0.273 C 
HETATM   29  C           1     172.106 186.739 290.478  0.00  0.00     0.032 C 
HETATM   30  C           1     173.009 185.600 290.938  0.00  0.00     0.032 C 
HETATM   31  C           1     174.224 185.666 290.029  0.00  0.00     0.273 C 
ENDBRANCH  26  27
ENDBRANCH  23  26
ENDBRANCH  19  20
ENDBRANCH  17  19
ENDBRANCH   1  17
TORSDOF 9
ENDMDL
MODEL 2
REMARK VINA RESULT:      -8.2      1.669      2.732
REMARK  9 active torsions:
REMARK  status: ('A' for Active; 'I' for Inactive)
REMARK    1  A    between atoms: C_5  and  S_23 
REMARK    2  A    between atoms: C_6  and  C_8 
REMARK    3  A    between atoms: C_8  and  N_9 
REMARK    4  A    between atoms: N_9  and  C_10 
REMARK    5  A    between atoms: C_10  and  C_11 
REMARK    6  A    between atoms: C_14  and  C_22 
REMARK    7  A    between atoms: N_17  and  C_22 
REMARK    8  A    between atoms: S_23  and  C_30 
REMARK    9  A    between atoms: C_24  and  C_30 
ROOT
HETATM    1  C           1     173.551 186.613 280.278  0.00  0.00     0.311 C 
ENDROOT
BRANCH   1   2
HETATM    2  C           1     172.574 186.766 279.154  0.00  0.00     0.003 A 
HETATM    3  C           1     173.008 186.846 277.840  0.00  0.00     0.077 A 
HETATM    4  N           1     172.180 186.985 276.783  0.00  0.00    -0.360 N 
HETATM    5  C           1     170.858 187.047 277.053  0.00  0.00     0.089 A 
ATOM      6  HN          1     172.534 187.040 275.828  1.00  0.00     0.166 HD
HETATM    7  C           1     170.328 186.975 278.331  0.00  0.00     0.018 A 
HETATM    8  C           1     171.207 186.832 279.400  0.00  0.00     0.013 A 
BRANCH   3   9
HETATM    9  S           1     174.793 186.760 277.522  0.00  0.00    -0.107 SA
BRANCH   9  10
HETATM   10  C           1     174.668 185.266 276.501  0.00  0.00     0.119 C 
BRANCH  10  11
HETATM   11  C           1     175.346 185.500 275.187  0.00  0.00    -0.049 A 
HETATM   12  C           1     176.639 186.023 275.153  0.00  0.00     0.008 A 
HETATM   13  C           1     177.270 186.241 273.928  0.00  0.00     0.001 A 
HETATM   14  C           1     176.609 185.937 272.738  0.00  0.00     0.000 A 
HETATM   15  C           1     175.316 185.414 272.773  0.00  0.00     0.001 A 
HETATM   16  C           1     174.686 185.195 273.998  0.00  0.00     0.008 A 
ENDBRANCH  10  11
ENDBRANCH   9  10
ENDBRANCH   3   9
ENDBRANCH   1   2
BRANCH   1  17
HETATM   17  N           1     173.036 185.674 281.238  0.00  0.00     0.091 N 
HETATM   18  H           1     172.439 186.163 281.905  0.00  0.00     0.316 HD
BRANCH  17  19
HETATM   19  C           1     174.157 185.097 281.930  0.00  0.00     0.308 C 
BRANCH  19  20
HETATM   20  C           1     173.906 185.137 283.406  0.00  0.00    -0.030 A 
HETATM   21  C           1     174.917 184.773 284.296  0.00  0.00     0.009 A 
HETATM   22  C           1     174.682 184.811 285.670  0.00  0.00     0.009 A 
HETATM   23  C           1     173.437 185.212 286.154  0.00  0.00    -0.030 A 
HETATM   24  C           1     172.428 185.576 285.265  0.00  0.00     0.009 A 
HETATM   25  C           1     172.662 185.539 283.891  0.00  0.00     0.009 A 
BRANCH  23  26
HETATM   26  C           1     173.187 185.252 287.630  0.00  0.00     0.311 C 
BRANCH  26  27
HETATM   27  N           1     173.873 186.377 288.203  0.00  0.00     0.092 N 
HETATM   28  C           1     172.896 187.243 288.858  0.00  0.00     0.273 C 
HETATM   29  C           1     172.539 186.489 290.127  0.00  0.00     0.032 C 
HETATM   30  C           1     173.740 185.595 290.410  0.00  0.00     0.032 C 
HETATM   31  C           1     174.719 185.879 289.284  0.00  0.00     0.273 C 
ENDBRANCH  26  27
ENDBRANCH  23  26
ENDBRANCH  19  20
ENDBRANCH  17  19
ENDBRANCH   1  17
TORSDOF 9
ENDMDL
MODEL 3
REMARK VINA RESULT:      -8.1      1.533      2.361
REMARK  9 active torsions:
REMARK  status: ('A' for Active; 'I' for Inactive)
REMARK    1  A    between atoms: C_5  and  S_23 
REMARK    2  A    between atoms: C_6  and  C_8 
REMARK    3  A    between atoms: C_8  and  N_9 
REMARK    4  A    between atoms: N_9  and  C_10 
REMARK    5  A    between atoms: C_10  and  C_11 
REMARK    6  A    between atoms: C_14  and  C_22 
REMARK    7  A    between atoms: N_17  and  C_22 
REMARK    8  A    between atoms: S_23  and  C_30 
REMARK    9  A    between atoms: C_24  and  C_30 
ROOT
HETATM    1  C           1     174.484 186.028 283.155  0.00  0.00     0.311 C 
ENDROOT
BRANCH   1   2
HETATM    2  C           1     173.565 187.201 283.011  0.00  0.00     0.003 A 
HETATM    3  C           1     173.560 187.963 281.854  0.00  0.00     0.077 A 
HETATM    4  N           1     172.757 189.031 281.662  0.00  0.00    -0.360 N 
HETATM    5  C           1     171.923 189.352 282.675  0.00  0.00     0.089 A 
ATOM      6  HN          1     172.779 189.569 280.795  1.00  0.00     0.166 HD
HETATM    7  C           1     171.856 188.653 283.869  0.00  0.00     0.018 A 
HETATM    8  C           1     172.695 187.556 284.037  0.00  0.00     0.013 A 
BRANCH   3   9
HETATM    9  S           1     174.697 187.498 280.518  0.00  0.00    -0.107 SA
BRANCH   9  10
HETATM   10  C           1     173.396 186.751 279.497  0.00  0.00     0.119 C 
BRANCH  10  11
HETATM   11  C           1     173.941 186.444 278.138  0.00  0.00    -0.049 A 
HETATM   12  C           1     173.151 185.772 277.205  0.00  0.00     0.008 A 
HETATM   13  C           1     173.660 185.486 275.938  0.00  0.00     0.001 A 
HETATM   14  C           1     174.958 185.872 275.603  0.00  0.00     0.000 A 
HETATM   15  C           1     175.748 186.543 276.536  0.00  0.00     0.001 A 
HETATM   16  C           1     175.239 186.830 277.803  0.00  0.00     0.008 A 
ENDBRANCH  10  11
ENDBRANCH   9  10
ENDBRANCH   3   9
ENDBRANCH   1   2
BRANCH   1  17
HETATM   17  N           1     173.806 184.967 283.849  0.00  0.00     0.091 N 
HETATM   18  H           1     172.984 185.343 284.323  0.00  0.00     0.316 HD
BRANCH  17  19
HETATM   19  C           1     174.716 184.428 284.822  0.00  0.00     0.308 C 
BRANCH  19  20
HETATM   20  C           1     174.338 184.919 286.185  0.00  0.00    -0.030 A 
HETATM   21  C           1     175.323 185.377 287.061  0.00  0.00     0.009 A 
HETATM   22  C           1     174.970 185.834 288.330  0.00  0.00     0.009 A 
HETATM   23  C           1     173.632 185.834 288.724  0.00  0.00    -0.030 A 
HETATM   24  C           1     172.647 185.377 287.849  0.00  0.00     0.009 A 
HETATM   25  C           1     173.000 184.920 286.580  0.00  0.00     0.009 A 
BRANCH  23  26
HETATM   26  C           1     173.253 186.325 290.087  0.00  0.00     0.311 C 
BRANCH  26  27
HETATM   27  N           1     171.846 186.120 290.297  0.00  0.00     0.092 N 
HETATM   28  C           1     171.662 185.296 291.489  0.00  0.00     0.273 C 
HETATM   29  C           1     171.955 186.248 292.635  0.00  0.00     0.032 C 
HETATM   30  C           1     171.683 187.640 292.077  0.00  0.00     0.032 C 
HETATM   31  C           1     171.255 187.412 290.637  0.00  0.00     0.273 C 
ENDBRANCH  26  27
ENDBRANCH  23  26
ENDBRANCH  19  20
ENDBRANCH  17  19
ENDBRANCH   1  17
TORSDOF 9
ENDMDL
MODEL 4
REMARK VINA RESULT:      -8.0      2.271     10.585
REMARK  9 active torsions:
REMARK  status: ('A' for Active; 'I' for Inactive)
REMARK    1  A    between atoms: C_5  and  S_23 
REMARK    2  A    between atoms: C_6  and  C_8 
REMARK    3  A    between atoms: C_8  and  N_9 
REMARK    4  A    between atoms: N_9  and  C_10 
REMARK    5  A    between atoms: C_10  and  C_11 
REMARK    6  A    between atoms: C_14  and  C_22 
REMARK    7  A    between atoms: N_17  and  C_22 
REMARK    8  A    between atoms: S_23  and  C_30 
REMARK    9  A    between atoms: C_24  and  C_30 
ROOT
HETATM    1  C           1     172.823 187.901 284.697  0.00  0.00     0.311 C 
ENDROOT
BRANCH   1   2
HETATM    2  C           1     173.580 186.650 285.019  0.00  0.00     0.003 A 
HETATM    3  C           1     173.708 186.214 286.328  0.00  0.00     0.077 A 
HETATM    4  N           1     174.377 185.096 286.685  0.00  0.00    -0.360 N 
HETATM    5  C           1     174.943 184.384 285.686  0.00  0.00     0.089 A 
ATOM      6  HN          1     174.450 184.804 287.659  1.00  0.00     0.166 HD
HETATM    7  C           1     174.870 184.739 284.349  0.00  0.00     0.018 A 
HETATM    8  C           1     174.174 185.896 284.013  0.00  0.00     0.013 A 
BRANCH   3   9
HETATM    9  S           1     172.932 187.200 287.639  0.00  0.00    -0.107 SA
BRANCH   9  10
HETATM   10  C           1     173.145 185.920 288.906  0.00  0.00     0.119 C 
BRANCH  10  11
HETATM   11  C           1     172.583 186.404 290.206  0.00  0.00    -0.049 A 
HETATM   12  C           1     172.675 185.605 291.346  0.00  0.00     0.008 A 
HETATM   13  C           1     172.151 186.057 292.557  0.00  0.00     0.001 A 
HETATM   14  C           1     171.537 187.307 292.630  0.00  0.00     0.000 A 
HETATM   15  C           1     171.445 188.105 291.489  0.00  0.00     0.001 A 
HETATM   16  C           1     171.970 187.654 290.278  0.00  0.00     0.008 A 
ENDBRANCH  10  11
ENDBRANCH   9  10
ENDBRANCH   3   9
ENDBRANCH   1   2
BRANCH   1  17
HETATM   17  N           1     173.517 188.633 283.672  0.00  0.00     0.091 N 
HETATM   18  H           1     173.885 189.500 284.065  0.00  0.00     0.316 HD
BRANCH  17  19
HETATM   19  C           1     172.570 188.940 282.635  0.00  0.00     0.308 C 
BRANCH  19  20
HETATM   20  C           1     172.944 188.207 281.384  0.00  0.00    -0.030 A 
HETATM   21  C           1     171.951 187.777 280.503  0.00  0.00     0.009 A 
HETATM   22  C           1     172.301 187.094 279.338  0.00  0.00     0.009 A 
HETATM   23  C           1     173.644 186.842 279.054  0.00  0.00    -0.030 A 
HETATM   24  C           1     174.635 187.273 279.934  0.00  0.00     0.009 A 
HETATM   25  C           1     174.286 187.956 281.099  0.00  0.00     0.009 A 
BRANCH  23  26
HETATM   26  C           1     174.018 186.110 277.803  0.00  0.00     0.311 C 
BRANCH  26  27
HETATM   27  N           1     174.755 186.987 276.935  0.00  0.00     0.092 N 
HETATM   28  C           1     176.150 186.554 276.901  0.00  0.00     0.273 C 
HETATM   29  C           1     176.119 185.306 276.035  0.00  0.00     0.032 C 
HETATM   30  C           1     174.881 185.459 275.160  0.00  0.00     0.032 C 
HETATM   31  C           1     174.264 186.783 275.576  0.00  0.00     0.273 C 
ENDBRANCH  26  27
ENDBRANCH  23  26
ENDBRANCH  19  20
ENDBRANCH  17  19
ENDBRANCH   1  17
TORSDOF 9
ENDMDL
MODEL 5
REMARK VINA RESULT:      -7.8      4.374      7.322
REMARK  9 active torsions:
REMARK  status: ('A' for Active; 'I' for Inactive)
REMARK    1  A    between atoms: C_5  and  S_23 
REMARK    2  A    between atoms: C_6  and  C_8 
REMARK    3  A    between atoms: C_8  and  N_9 
REMARK    4  A    between atoms: N_9  and  C_10 
REMARK    5  A    between atoms: C_10  and  C_11 
REMARK    6  A    between atoms: C_14  and  C_22 
REMARK    7  A    between atoms: N_17  and  C_22 
REMARK    8  A    between atoms: S_23  and  C_30 
REMARK    9  A    between atoms: C_24  and  C_30 
ROOT
HETATM    1  C           1     174.211 185.483 274.791  0.00  0.00     0.311 C 
ENDROOT
BRANCH   1   2
HETATM    2  C           1     175.679 185.778 274.796  0.00  0.00     0.003 A 
HETATM    3  C           1     176.309 186.274 273.666  0.00  0.00     0.077 A 
HETATM    4  N           1     177.627 186.560 273.605  0.00  0.00    -0.360 N 
HETATM    5  C           1     178.347 186.339 274.727  0.00  0.00     0.089 A 
ATOM      6  HN          1     178.058 186.925 272.756  1.00  0.00     0.166 HD
HETATM    7  C           1     177.808 185.846 275.904  0.00  0.00     0.018 A 
HETATM    8  C           1     176.447 185.561 275.935  0.00  0.00     0.013 A 
BRANCH   3   9
HETATM    9  S           1     175.305 186.555 272.181  0.00  0.00    -0.107 SA
BRANCH   9  10
HETATM   10  C           1     175.643 188.337 272.133  0.00  0.00     0.119 C 
BRANCH  10  11
HETATM   11  C           1     175.296 188.876 270.781  0.00  0.00    -0.049 A 
HETATM   12  C           1     175.301 190.254 270.557  0.00  0.00     0.008 A 
HETATM   13  C           1     174.977 190.755 269.297  0.00  0.00     0.001 A 
HETATM   14  C           1     174.649 189.882 268.260  0.00  0.00     0.000 A 
HETATM   15  C           1     174.644 188.505 268.485  0.00  0.00     0.001 A 
HETATM   16  C           1     174.968 188.003 269.745  0.00  0.00     0.008 A 
ENDBRANCH  10  11
ENDBRANCH   9  10
ENDBRANCH   3   9
ENDBRANCH   1   2
BRANCH   1  17
HETATM   17  N           1     173.515 186.497 275.537  0.00  0.00     0.091 N 
HETATM   18  H           1     174.187 187.046 276.073  0.00  0.00     0.316 HD
BRANCH  17  19
HETATM   19  C           1     172.610 185.833 276.437  0.00  0.00     0.308 C 
BRANCH  19  20
HETATM   20  C           1     173.014 186.118 277.850  0.00  0.00    -0.030 A 
HETATM   21  C           1     174.234 186.742 278.115  0.00  0.00     0.009 A 
HETATM   22  C           1     174.609 187.007 279.433  0.00  0.00     0.009 A 
HETATM   23  C           1     173.765 186.648 280.484  0.00  0.00    -0.030 A 
HETATM   24  C           1     172.547 186.025 280.218  0.00  0.00     0.009 A 
HETATM   25  C           1     172.171 185.760 278.902  0.00  0.00     0.009 A 
BRANCH  23  26
HETATM   26  C           1     174.169 186.932 281.897  0.00  0.00     0.311 C 
BRANCH  26  27
HETATM   27  N           1     175.190 186.004 282.301  0.00  0.00     0.092 N 
HETATM   28  C           1     175.768 186.458 283.563  0.00  0.00     0.273 C 
HETATM   29  C           1     174.700 186.126 284.590  0.00  0.00     0.032 C 
HETATM   30  C           1     173.893 184.991 283.973  0.00  0.00     0.032 C 
HETATM   31  C           1     174.537 184.737 282.621  0.00  0.00     0.273 C 
ENDBRANCH  26  27
ENDBRANCH  23  26
ENDBRANCH  19  20
ENDBRANCH  17  19
ENDBRANCH   1  17
TORSDOF 9
ENDMDL
MODEL 6
REMARK VINA RESULT:      -7.8      3.222      6.510
REMARK  9 active torsions:
REMARK  status: ('A' for Active; 'I' for Inactive)
REMARK    1  A    between atoms: C_5  and  S_23 
REMARK    2  A    between atoms: C_6  and  C_8 
REMARK    3  A    between atoms: C_8  and  N_9 
REMARK    4  A    between atoms: N_9  and  C_10 
REMARK    5  A    between atoms: C_10  and  C_11 
REMARK    6  A    between atoms: C_14  and  C_22 
REMARK    7  A    between atoms: N_17  and  C_22 
REMARK    8  A    between atoms: S_23  and  C_30 
REMARK    9  A    between atoms: C_24  and  C_30 
ROOT
HETATM    1  C           1     173.845 185.633 275.062  0.00  0.00     0.311 C 
ENDROOT
BRANCH   1   2
HETATM    2  C           1     175.308 185.951 275.098  0.00  0.00     0.003 A 
HETATM    3  C           1     175.836 186.958 274.306  0.00  0.00     0.077 A 
HETATM    4  N           1     177.144 187.294 274.292  0.00  0.00    -0.360 N 
HETATM    5  C           1     177.959 186.589 275.106  0.00  0.00     0.089 A 
ATOM      6  HN          1     177.498 188.043 273.697  1.00  0.00     0.166 HD
HETATM    7  C           1     177.526 185.565 275.933  0.00  0.00     0.018 A 
HETATM    8  C           1     176.172 185.243 275.926  0.00  0.00     0.013 A 
BRANCH   3   9
HETATM    9  S           1     174.705 187.880 273.227  0.00  0.00    -0.107 SA
BRANCH   9  10
HETATM   10  C           1     175.450 187.253 271.696  0.00  0.00     0.119 C 
BRANCH  10  11
HETATM   11  C           1     175.099 185.808 271.524  0.00  0.00    -0.049 A 
HETATM   12  C           1     176.106 184.866 271.310  0.00  0.00     0.008 A 
HETATM   13  C           1     175.778 183.520 271.150  0.00  0.00     0.001 A 
HETATM   14  C           1     174.445 183.114 271.204  0.00  0.00     0.000 A 
HETATM   15  C           1     173.438 184.057 271.418  0.00  0.00     0.001 A 
HETATM   16  C           1     173.766 185.403 271.579  0.00  0.00     0.008 A 
ENDBRANCH  10  11
ENDBRANCH   9  10
ENDBRANCH   3   9
ENDBRANCH   1   2
BRANCH   1  17
HETATM   17  N           1     173.390 185.314 276.388  0.00  0.00     0.091 N 
HETATM   18  H           1     172.685 184.577 276.337  0.00  0.00     0.316 HD
BRANCH  17  19
HETATM   19  C           1     172.802 186.502 276.947  0.00  0.00     0.308 C 
BRANCH  19  20
HETATM   20  C           1     173.206 186.631 278.382  0.00  0.00    -0.030 A 
HETATM   21  C           1     174.500 187.037 278.709  0.00  0.00     0.009 A 
HETATM   22  C           1     174.876 187.158 280.047  0.00  0.00     0.009 A 
HETATM   23  C           1     173.958 186.871 281.058  0.00  0.00    -0.030 A 
HETATM   24  C           1     172.665 186.466 280.731  0.00  0.00     0.009 A 
HETATM   25  C           1     172.289 186.346 279.394  0.00  0.00     0.009 A 
BRANCH  23  26
HETATM   26  C           1     174.362 187.001 282.494  0.00  0.00     0.311 C 
BRANCH  26  27
HETATM   27  N           1     175.453 186.105 282.768  0.00  0.00     0.092 N 
HETATM   28  C           1     175.957 186.373 284.112  0.00  0.00     0.273 C 
HETATM   29  C           1     174.899 185.772 285.021  0.00  0.00     0.032 C 
HETATM   30  C           1     174.214 184.701 284.180  0.00  0.00     0.032 C 
HETATM   31  C           1     174.911 184.751 282.832  0.00  0.00     0.273 C 
ENDBRANCH  26  27
ENDBRANCH  23  26
ENDBRANCH  19  20
ENDBRANCH  17  19
ENDBRANCH   1  17
TORSDOF 9
ENDMDL
MODEL 7
REMARK VINA RESULT:      -7.8      2.235     10.732
REMARK  9 active torsions:
REMARK  status: ('A' for Active; 'I' for Inactive)
REMARK    1  A    between atoms: C_5  and  S_23 
REMARK    2  A    between atoms: C_6  and  C_8 
REMARK    3  A    between atoms: C_8  and  N_9 
REMARK    4  A    between atoms: N_9  and  C_10 
REMARK    5  A    between atoms: C_10  and  C_11 
REMARK    6  A    between atoms: C_14  and  C_22 
REMARK    7  A    between atoms: N_17  and  C_22 
REMARK    8  A    between atoms: S_23  and  C_30 
REMARK    9  A    between atoms: C_24  and  C_30 
ROOT
HETATM    1  C           1     172.517 185.470 284.097  0.00  0.00     0.311 C 
ENDROOT
BRANCH   1   2
HETATM    2  C           1     173.614 185.404 285.114  0.00  0.00     0.003 A 
HETATM    3  C           1     173.418 185.875 286.403  0.00  0.00     0.077 A 
HETATM    4  N           1     174.364 185.844 287.365  0.00  0.00    -0.360 N 
HETATM    5  C           1     175.560 185.319 287.022  0.00  0.00     0.089 A 
ATOM      6  HN          1     174.185 186.200 288.305  1.00  0.00     0.166 HD
HETATM    7  C           1     175.851 184.823 285.762  0.00  0.00     0.018 A 
HETATM    8  C           1     174.856 184.868 284.791  0.00  0.00     0.013 A 
BRANCH   3   9
HETATM    9  S           1     171.796 186.574 286.821  0.00  0.00    -0.107 SA
BRANCH   9  10
HETATM   10  C           1     172.450 187.634 288.140  0.00  0.00     0.119 C 
BRANCH  10  11
HETATM   11  C           1     171.860 187.221 289.452  0.00  0.00    -0.049 A 
HETATM   12  C           1     171.563 185.879 289.691  0.00  0.00     0.008 A 
HETATM   13  C           1     171.015 185.494 290.914  0.00  0.00     0.001 A 
HETATM   14  C           1     170.762 186.449 291.898  0.00  0.00     0.000 A 
HETATM   15  C           1     171.059 187.791 291.658  0.00  0.00     0.001 A 
HETATM   16  C           1     171.609 188.176 290.436  0.00  0.00     0.008 A 
ENDBRANCH  10  11
ENDBRANCH   9  10
ENDBRANCH   3   9
ENDBRANCH   1   2
BRANCH   1  17
HETATM   17  N           1     173.080 185.380 282.777  0.00  0.00     0.091 N 
HETATM   18  H           1     174.086 185.543 282.825  0.00  0.00     0.316 HD
BRANCH  17  19
HETATM   19  C           1     172.466 186.399 281.968  0.00  0.00     0.308 C 
BRANCH  19  20
HETATM   20  C           1     173.153 186.463 280.640  0.00  0.00    -0.030 A 
HETATM   21  C           1     174.427 187.024 280.540  0.00  0.00     0.009 A 
HETATM   22  C           1     175.067 187.084 279.301  0.00  0.00     0.009 A 
HETATM   23  C           1     174.433 186.583 278.164  0.00  0.00    -0.030 A 
HETATM   24  C           1     173.161 186.022 278.265  0.00  0.00     0.009 A 
HETATM   25  C           1     172.521 185.962 279.502  0.00  0.00     0.009 A 
BRANCH  23  26
HETATM   26  C           1     175.120 186.648 276.836  0.00  0.00     0.311 C 
BRANCH  26  27
HETATM   27  N           1     175.500 185.323 276.426  0.00  0.00     0.092 N 
HETATM   28  C           1     175.003 185.087 275.073  0.00  0.00     0.273 C 
HETATM   29  C           1     175.939 185.902 274.198  0.00  0.00     0.032 C 
HETATM   30  C           1     177.225 186.035 275.005  0.00  0.00     0.032 C 
HETATM   31  C           1     176.955 185.295 276.304  0.00  0.00     0.273 C 
ENDBRANCH  26  27
ENDBRANCH  23  26
ENDBRANCH  19  20
ENDBRANCH  17  19
ENDBRANCH   1  17
TORSDOF 9
ENDMDL
MODEL 8
REMARK VINA RESULT:      -7.7      3.439     10.690
REMARK  9 active torsions:
REMARK  status: ('A' for Active; 'I' for Inactive)
REMARK    1  A    between atoms: C_5  and  S_23 
REMARK    2  A    between atoms: C_6  and  C_8 
REMARK    3  A    between atoms: C_8  and  N_9 
REMARK    4  A    between atoms: N_9  and  C_10 
REMARK    5  A    between atoms: C_10  and  C_11 
REMARK    6  A    between atoms: C_14  and  C_22 
REMARK    7  A    between atoms: N_17  and  C_22 
REMARK    8  A    between atoms: S_23  and  C_30 
REMARK    9  A    between atoms: C_24  and  C_30 
ROOT
HETATM    1  C           1     172.164 185.963 288.653  0.00  0.00     0.311 C 
ENDROOT
BRANCH   1   2
HETATM    2  C           1     171.018 186.795 288.166  0.00  0.00     0.003 A 
HETATM    3  C           1     169.712 186.464 288.489  0.00  0.00     0.077 A 
HETATM    4  N           1     168.636 187.172 288.083  0.00  0.00    -0.360 N 
HETATM    5  C           1     168.879 188.258 287.318  0.00  0.00     0.089 A 
ATOM      6  HN          1     167.687 186.899 288.340  1.00  0.00     0.166 HD
HETATM    7  C           1     170.148 188.668 286.943  0.00  0.00     0.018 A 
HETATM    8  C           1     171.236 187.919 287.377  0.00  0.00     0.013 A 
BRANCH   3   9
HETATM    9  S           1     169.430 184.996 289.518  0.00  0.00    -0.107 SA
BRANCH   9  10
HETATM   10  C           1     168.126 185.781 290.506  0.00  0.00     0.119 C 
BRANCH  10  11
HETATM   11  C           1     168.695 186.236 291.814  0.00  0.00    -0.049 A 
HETATM   12  C           1     170.067 186.459 291.937  0.00  0.00     0.008 A 
HETATM   13  C           1     170.596 186.884 293.156  0.00  0.00     0.001 A 
HETATM   14  C           1     169.756 187.084 294.251  0.00  0.00     0.000 A 
HETATM   15  C           1     168.385 186.860 294.127  0.00  0.00     0.001 A 
HETATM   16  C           1     167.855 186.437 292.908  0.00  0.00     0.008 A 
ENDBRANCH  10  11
ENDBRANCH   9  10
ENDBRANCH   3   9
ENDBRANCH   1   2
BRANCH   1  17
HETATM   17  N           1     172.438 184.919 287.703  0.00  0.00     0.091 N 
HETATM   18  H           1     172.365 184.012 288.165  0.00  0.00     0.316 HD
BRANCH  17  19
HETATM   19  C           1     173.780 185.106 287.222  0.00  0.00     0.308 C 
BRANCH  19  20
HETATM   20  C           1     173.768 185.191 285.727  0.00  0.00    -0.030 A 
HETATM   21  C           1     172.621 185.629 285.063  0.00  0.00     0.009 A 
HETATM   22  C           1     172.611 185.708 283.670  0.00  0.00     0.009 A 
HETATM   23  C           1     173.746 185.350 282.942  0.00  0.00    -0.030 A 
HETATM   24  C           1     174.891 184.914 283.607  0.00  0.00     0.009 A 
HETATM   25  C           1     174.902 184.835 284.999  0.00  0.00     0.009 A 
BRANCH  23  26
HETATM   26  C           1     173.733 185.436 281.448  0.00  0.00     0.311 C 
BRANCH  26  27
HETATM   27  N           1     173.182 186.701 281.044  0.00  0.00     0.092 N 
HETATM   28  C           1     174.232 187.490 280.405  0.00  0.00     0.273 C 
HETATM   29  C           1     174.397 186.838 279.044  0.00  0.00     0.032 C 
HETATM   30  C           1     173.064 186.154 278.766  0.00  0.00     0.032 C 
HETATM   31  C           1     172.208 186.444 279.987  0.00  0.00     0.273 C 
ENDBRANCH  26  27
ENDBRANCH  23  26
ENDBRANCH  19  20
ENDBRANCH  17  19
ENDBRANCH   1  17
TORSDOF 9
ENDMDL
MODEL 9
REMARK VINA RESULT:      -7.6      3.690     11.771
REMARK  9 active torsions:
REMARK  status: ('A' for Active; 'I' for Inactive)
REMARK    1  A    between atoms: C_5  and  S_23 
REMARK    2  A    between atoms: C_6  and  C_8 
REMARK    3  A    between atoms: C_8  and  N_9 
REMARK    4  A    between atoms: N_9  and  C_10 
REMARK    5  A    between atoms: C_10  and  C_11 
REMARK    6  A    between atoms: C_14  and  C_22 
REMARK    7  A    between atoms: N_17  and  C_22 
REMARK    8  A    between atoms: S_23  and  C_30 
REMARK    9  A    between atoms: C_24  and  C_30 
ROOT
HETATM    1  C           1     175.239 186.826 278.399  0.00  0.00     0.311 C 
ENDROOT
BRANCH   1   2
HETATM    2  C           1     173.768 186.662 278.624  0.00  0.00     0.003 A 
HETATM    3  C           1     173.241 186.645 279.906  0.00  0.00     0.077 A 
HETATM    4  N           1     171.926 186.501 280.176  0.00  0.00    -0.360 N 
HETATM    5  C           1     171.101 186.367 279.114  0.00  0.00     0.089 A 
ATOM      6  HN          1     171.573 186.495 281.133  1.00  0.00     0.166 HD
HETATM    7  C           1     171.532 186.371 277.798  0.00  0.00     0.018 A 
HETATM    8  C           1     172.893 186.522 277.552  0.00  0.00     0.013 A 
BRANCH   3   9
HETATM    9  S           1     174.386 186.828 281.303  0.00  0.00    -0.107 SA
BRANCH   9  10
HETATM   10  C           1     174.185 185.112 281.857  0.00  0.00     0.119 C 
BRANCH  10  11
HETATM   11  C           1     173.912 185.091 283.329  0.00  0.00    -0.049 A 
HETATM   12  C           1     174.944 184.813 284.226  0.00  0.00     0.008 A 
HETATM   13  C           1     174.688 184.793 285.597  0.00  0.00     0.001 A 
HETATM   14  C           1     173.403 185.052 286.072  0.00  0.00     0.000 A 
HETATM   15  C           1     172.372 185.330 285.175  0.00  0.00     0.001 A 
HETATM   16  C           1     172.627 185.350 283.804  0.00  0.00     0.008 A 
ENDBRANCH  10  11
ENDBRANCH   9  10
ENDBRANCH   3   9
ENDBRANCH   1   2
BRANCH   1  17
HETATM   17  N           1     175.485 187.107 277.010  0.00  0.00     0.091 N 
HETATM   18  H           1     174.629 186.954 276.476  0.00  0.00     0.316 HD
BRANCH  17  19
HETATM   19  C           1     176.504 186.200 276.555  0.00  0.00     0.308 C 
BRANCH  19  20
HETATM   20  C           1     176.251 185.844 275.122  0.00  0.00    -0.030 A 
HETATM   21  C           1     177.148 186.250 274.133  0.00  0.00     0.009 A 
HETATM   22  C           1     176.911 185.919 272.799  0.00  0.00     0.009 A 
HETATM   23  C           1     175.778 185.182 272.454  0.00  0.00    -0.030 A 
HETATM   24  C           1     174.883 184.776 273.442  0.00  0.00     0.009 A 
HETATM   25  C           1     175.119 185.107 274.776  0.00  0.00     0.009 A 
BRANCH  23  26
HETATM   26  C           1     175.525 184.827 271.022  0.00  0.00     0.311 C 
BRANCH  26  27
HETATM   27  N           1     176.509 183.875 270.582  0.00  0.00     0.092 N 
HETATM   28  C           1     175.863 182.577 270.403  0.00  0.00     0.273 C 
HETATM   29  C           1     175.074 182.742 269.115  0.00  0.00     0.032 C 
HETATM   30  C           1     175.787 183.851 268.351  0.00  0.00     0.032 C 
HETATM   31  C           1     176.942 184.269 269.245  0.00  0.00     0.273 C 
ENDBRANCH  26  27
ENDBRANCH  23  26
ENDBRANCH  19  20
ENDBRANCH  17  19
ENDBRANCH   1  17
TORSDOF 9
ENDMDL
