MODEL 1
REMARK VINA RESULT:      -8.0      0.000      0.000
REMARK  9 active torsions:
REMARK  status: ('A' for Active; 'I' for Inactive)
REMARK    1  A    between atoms: C_2  and  C_18 
REMARK    2  A    between atoms: C_5  and  S_9 
REMARK    3  A    between atoms: C_6  and  C_8 
REMARK    4  A    between atoms: C_8  and  N_17 
REMARK    5  A    between atoms: S_9  and  C_10 
REMARK    6  A    between atoms: C_10  and  C_11 
REMARK    7  A    between atoms: N_17  and  C_19 
REMARK    8  A    between atoms: C_19  and  C_20 
REMARK    9  A    between atoms: C_20  and  N_21 
ROOT
HETATM    1  C           1     174.473 186.275 271.895  0.00  0.00     0.101 A 
HETATM    2  C           1     175.608 185.549 272.214  0.00  0.00    -0.010 A 
HETATM    3  N           1     173.857 186.218 270.694  0.00  0.00    -0.359 N 
ATOM      4  HN          1     173.022 186.768 270.493  1.00  0.00     0.166 HD
HETATM    5  C           1     174.402 185.394 269.773  0.00  0.00     0.077 A 
HETATM    6  C           1     175.534 184.628 269.998  0.00  0.00     0.004 A 
HETATM    7  C           1     176.147 184.709 271.244  0.00  0.00     0.025 A 
ENDROOT
BRANCH   6   8
HETATM    8  C           1     176.084 183.735 268.928  0.00  0.00     0.311 C 
BRANCH   8   9
HETATM    9  N           1     177.270 184.328 268.372  0.00  0.00     0.089 N 
HETATM   10  H           1     177.262 185.333 268.546  0.00  0.00     0.316 HD
BRANCH   9  11
HETATM   11  C           1     177.255 184.088 266.954  0.00  0.00     0.300 C 
BRANCH  11  12
HETATM   12  C           1     176.315 182.931 266.644  0.00  0.00     0.302 C 
BRANCH  12  13
HETATM   13  N           1     175.806 183.071 265.307  0.00  0.00     0.093 N 
HETATM   14  C           1     174.339 182.957 265.391  0.00  0.00     0.302 C 
HETATM   15  C           1     173.628 183.339 264.076  0.00  0.00     0.302 C 
HETATM   16  N           1     173.988 184.686 263.598  0.00  0.00     0.087 N 
HETATM   17  C           1     173.462 184.813 262.265  0.00  0.00     0.310 C 
HETATM   18  C           1     175.455 184.800 263.513  0.00  0.00     0.302 C 
HETATM   19  C           1     176.166 184.418 264.829  0.00  0.00     0.302 C 
ENDBRANCH  12  13
ENDBRANCH  11  12
ENDBRANCH   9  11
ENDBRANCH   8   9
ENDBRANCH   6   8
BRANCH   5  20
HETATM   20  S           1     173.606 185.285 268.145  0.00  0.00    -0.107 SA
BRANCH  20  21
HETATM   21  C           1     174.576 186.646 267.439  0.00  0.00     0.119 C 
BRANCH  21  22
HETATM   22  C           1     173.736 187.885 267.389  0.00  0.00    -0.049 A 
HETATM   23  C           1     174.216 189.075 267.936  0.00  0.00     0.008 A 
HETATM   24  C           1     173.433 190.229 267.888  0.00  0.00     0.001 A 
HETATM   25  C           1     172.171 190.192 267.296  0.00  0.00     0.000 A 
HETATM   26  C           1     171.692 189.002 266.749  0.00  0.00     0.001 A 
HETATM   27  C           1     172.474 187.848 266.796  0.00  0.00     0.008 A 
ENDBRANCH  21  22
ENDBRANCH  20  21
ENDBRANCH   5  20
BRANCH   2  28
HETATM   28  C           1     176.172 185.650 273.422  0.00  0.00    -0.025 A 
HETATM   29  C           1     175.560 185.059 274.528  0.00  0.00     0.013 A 
HETATM   30  C           1     176.147 185.165 275.789  0.00  0.00     0.007 A 
HETATM   31  C           1     177.345 185.862 275.945  0.00  0.00    -0.062 A 
HETATM   32  C           1     177.975 185.975 277.297  0.00  0.00     0.048 C 
HETATM   33  C           1     177.957 186.452 274.838  0.00  0.00     0.007 A 
HETATM   34  C           1     177.370 186.346 273.577  0.00  0.00     0.013 A 
ENDBRANCH   2  28
TORSDOF 9
ENDMDL
MODEL 2
REMARK VINA RESULT:      -7.9      1.349      1.802
REMARK  9 active torsions:
REMARK  status: ('A' for Active; 'I' for Inactive)
REMARK    1  A    between atoms: C_2  and  C_18 
REMARK    2  A    between atoms: C_5  and  S_9 
REMARK    3  A    between atoms: C_6  and  C_8 
REMARK    4  A    between atoms: C_8  and  N_17 
REMARK    5  A    between atoms: S_9  and  C_10 
REMARK    6  A    between atoms: C_10  and  C_11 
REMARK    7  A    between atoms: N_17  and  C_19 
REMARK    8  A    between atoms: C_19  and  C_20 
REMARK    9  A    between atoms: C_20  and  N_21 
ROOT
HETATM    1  C           1     174.489 186.308 271.899  0.00  0.00     0.101 A 
HETATM    2  C           1     175.623 185.583 272.227  0.00  0.00    -0.010 A 
HETATM    3  N           1     173.886 186.256 270.692  0.00  0.00    -0.359 N 
ATOM      4  HN          1     173.051 186.805 270.485  1.00  0.00     0.166 HD
HETATM    5  C           1     174.444 185.439 269.771  0.00  0.00     0.077 A 
HETATM    6  C           1     175.576 184.676 270.004  0.00  0.00     0.004 A 
HETATM    7  C           1     176.175 184.751 271.258  0.00  0.00     0.025 A 
ENDROOT
BRANCH   6   8
HETATM    8  C           1     176.141 183.792 268.936  0.00  0.00     0.311 C 
BRANCH   8   9
HETATM    9  N           1     177.263 184.444 268.317  0.00  0.00     0.089 N 
HETATM   10  H           1     177.189 185.452 268.455  0.00  0.00     0.316 HD
BRANCH   9  11
HETATM   11  C           1     177.219 184.148 266.910  0.00  0.00     0.300 C 
BRANCH  11  12
HETATM   12  C           1     176.507 182.821 266.691  0.00  0.00     0.302 C 
BRANCH  12  13
HETATM   13  N           1     176.572 182.464 265.300  0.00  0.00     0.093 N 
HETATM   14  C           1     176.721 183.719 264.541  0.00  0.00     0.302 C 
HETATM   15  C           1     177.061 183.486 263.053  0.00  0.00     0.302 C 
HETATM   16  N           1     178.260 182.651 262.860  0.00  0.00     0.087 N 
HETATM   17  C           1     178.316 182.314 261.463  0.00  0.00     0.310 C 
HETATM   18  C           1     178.111 181.397 263.619  0.00  0.00     0.302 C 
HETATM   19  C           1     177.771 181.630 265.107  0.00  0.00     0.302 C 
ENDBRANCH  12  13
ENDBRANCH  11  12
ENDBRANCH   9  11
ENDBRANCH   8   9
ENDBRANCH   6   8
BRANCH   5  20
HETATM   20  S           1     173.666 185.337 268.134  0.00  0.00    -0.107 SA
BRANCH  20  21
HETATM   21  C           1     174.558 186.777 267.481  0.00  0.00     0.119 C 
BRANCH  21  22
HETATM   22  C           1     173.616 187.934 267.357  0.00  0.00    -0.049 A 
HETATM   23  C           1     173.986 189.190 267.837  0.00  0.00     0.008 A 
HETATM   24  C           1     173.109 190.268 267.720  0.00  0.00     0.001 A 
HETATM   25  C           1     171.860 190.090 267.125  0.00  0.00     0.000 A 
HETATM   26  C           1     171.489 188.833 266.645  0.00  0.00     0.001 A 
HETATM   27  C           1     172.367 187.755 266.762  0.00  0.00     0.008 A 
ENDBRANCH  21  22
ENDBRANCH  20  21
ENDBRANCH   5  20
BRANCH   2  28
HETATM   28  C           1     176.173 185.679 273.442  0.00  0.00    -0.025 A 
HETATM   29  C           1     175.521 185.129 274.546  0.00  0.00     0.013 A 
HETATM   30  C           1     176.094 185.229 275.814  0.00  0.00     0.007 A 
HETATM   31  C           1     177.317 185.880 275.978  0.00  0.00    -0.062 A 
HETATM   32  C           1     177.931 185.987 277.338  0.00  0.00     0.048 C 
HETATM   33  C           1     177.967 186.430 274.873  0.00  0.00     0.007 A 
HETATM   34  C           1     177.395 186.330 273.605  0.00  0.00     0.013 A 
ENDBRANCH   2  28
TORSDOF 9
ENDMDL
MODEL 3
REMARK VINA RESULT:      -7.8      8.299     13.380
REMARK  9 active torsions:
REMARK  status: ('A' for Active; 'I' for Inactive)
REMARK    1  A    between atoms: C_2  and  C_18 
REMARK    2  A    between atoms: C_5  and  S_9 
REMARK    3  A    between atoms: C_6  and  C_8 
REMARK    4  A    between atoms: C_8  and  N_17 
REMARK    5  A    between atoms: S_9  and  C_10 
REMARK    6  A    between atoms: C_10  and  C_11 
REMARK    7  A    between atoms: N_17  and  C_19 
REMARK    8  A    between atoms: C_19  and  C_20 
REMARK    9  A    between atoms: C_20  and  N_21 
ROOT
HETATM    1  C           1     173.407 189.068 283.612  0.00  0.00     0.101 A 
HETATM    2  C           1     172.814 189.514 282.442  0.00  0.00    -0.010 A 
HETATM    3  N           1     174.313 188.067 283.662  0.00  0.00    -0.359 N 
ATOM      4  HN          1     174.729 187.764 284.542  1.00  0.00     0.166 HD
HETATM    5  C           1     174.639 187.488 282.486  0.00  0.00     0.077 A 
HETATM    6  C           1     174.101 187.864 281.265  0.00  0.00     0.004 A 
HETATM    7  C           1     173.171 188.898 281.247  0.00  0.00     0.025 A 
ENDROOT
BRANCH   6   8
HETATM    8  C           1     174.511 187.176 280.000  0.00  0.00     0.311 C 
BRANCH   8   9
HETATM    9  N           1     173.377 186.494 279.436  0.00  0.00     0.089 N 
HETATM   10  H           1     173.240 185.606 279.920  0.00  0.00     0.316 HD
BRANCH   9  11
HETATM   11  C           1     173.662 186.245 278.049  0.00  0.00     0.300 C 
BRANCH  11  12
HETATM   12  C           1     175.002 186.870 277.685  0.00  0.00     0.302 C 
BRANCH  12  13
HETATM   13  N           1     175.561 186.183 276.552  0.00  0.00     0.093 N 
HETATM   14  C           1     174.430 185.665 275.762  0.00  0.00     0.302 C 
HETATM   15  C           1     174.857 185.123 274.382  0.00  0.00     0.302 C 
HETATM   16  N           1     175.601 186.111 273.581  0.00  0.00     0.087 N 
HETATM   17  C           1     176.144 185.411 272.448  0.00  0.00     0.310 C 
HETATM   18  C           1     176.732 186.630 274.371  0.00  0.00     0.302 C 
HETATM   19  C           1     176.305 187.172 275.751  0.00  0.00     0.302 C 
ENDBRANCH  12  13
ENDBRANCH  11  12
ENDBRANCH   9  11
ENDBRANCH   8   9
ENDBRANCH   6   8
BRANCH   5  20
HETATM   20  S           1     175.853 186.138 282.505  0.00  0.00    -0.107 SA
BRANCH  20  21
HETATM   21  C           1     174.596 184.841 282.682  0.00  0.00     0.119 C 
BRANCH  21  22
HETATM   22  C           1     174.054 184.858 284.078  0.00  0.00    -0.049 A 
HETATM   23  C           1     174.908 184.648 285.161  0.00  0.00     0.008 A 
HETATM   24  C           1     174.402 184.666 286.460  0.00  0.00     0.001 A 
HETATM   25  C           1     173.043 184.892 286.678  0.00  0.00     0.000 A 
HETATM   26  C           1     172.190 185.102 285.595  0.00  0.00     0.001 A 
HETATM   27  C           1     172.694 185.085 284.295  0.00  0.00     0.008 A 
ENDBRANCH  21  22
ENDBRANCH  20  21
ENDBRANCH   5  20
BRANCH   2  28
HETATM   28  C           1     171.923 190.511 282.460  0.00  0.00    -0.025 A 
HETATM   29  C           1     170.722 190.359 283.153  0.00  0.00     0.013 A 
HETATM   30  C           1     169.792 191.399 283.171  0.00  0.00     0.007 A 
HETATM   31  C           1     170.062 192.589 282.496  0.00  0.00    -0.062 A 
HETATM   32  C           1     169.064 193.704 282.516  0.00  0.00     0.048 C 
HETATM   33  C           1     171.264 192.740 281.803  0.00  0.00     0.007 A 
HETATM   34  C           1     172.194 191.701 281.785  0.00  0.00     0.013 A 
ENDBRANCH   2  28
TORSDOF 9
ENDMDL
MODEL 4
REMARK VINA RESULT:      -7.8      2.915      6.369
REMARK  9 active torsions:
REMARK  status: ('A' for Active; 'I' for Inactive)
REMARK    1  A    between atoms: C_2  and  C_18 
REMARK    2  A    between atoms: C_5  and  S_9 
REMARK    3  A    between atoms: C_6  and  C_8 
REMARK    4  A    between atoms: C_8  and  N_17 
REMARK    5  A    between atoms: S_9  and  C_10 
REMARK    6  A    between atoms: C_10  and  C_11 
REMARK    7  A    between atoms: N_17  and  C_19 
REMARK    8  A    between atoms: C_19  and  C_20 
REMARK    9  A    between atoms: C_20  and  N_21 
ROOT
HETATM    1  C           1     176.020 184.820 271.322  0.00  0.00     0.101 A 
HETATM    2  C           1     175.510 185.584 272.359  0.00  0.00    -0.010 A 
HETATM    3  N           1     175.427 184.701 270.114  0.00  0.00    -0.359 N 
ATOM      4  HN          1     175.831 184.128 269.373  1.00  0.00     0.166 HD
HETATM    5  C           1     174.272 185.378 269.938  0.00  0.00     0.077 A 
HETATM    6  C           1     173.684 186.167 270.913  0.00  0.00     0.004 A 
HETATM    7  C           1     174.318 186.270 272.147  0.00  0.00     0.025 A 
ENDROOT
BRANCH   6   8
HETATM    8  C           1     172.400 186.890 270.647  0.00  0.00     0.311 C 
BRANCH   8   9
HETATM    9  N           1     172.601 188.304 270.817  0.00  0.00     0.089 N 
HETATM   10  H           1     173.112 188.473 271.684  0.00  0.00     0.316 HD
BRANCH   9  11
HETATM   11  C           1     171.306 188.924 270.895  0.00  0.00     0.300 C 
BRANCH  11  12
HETATM   12  C           1     171.453 190.431 270.739  0.00  0.00     0.302 C 
BRANCH  12  13
HETATM   13  N           1     172.579 190.886 271.508  0.00  0.00     0.093 N 
HETATM   14  C           1     173.143 192.049 270.799  0.00  0.00     0.302 C 
HETATM   15  C           1     174.200 192.807 271.630  0.00  0.00     0.302 C 
HETATM   16  N           1     173.699 193.233 272.949  0.00  0.00     0.087 N 
HETATM   17  C           1     174.835 193.695 273.700  0.00  0.00     0.310 C 
HETATM   18  C           1     173.135 192.070 273.658  0.00  0.00     0.302 C 
HETATM   19  C           1     172.078 191.312 272.827  0.00  0.00     0.302 C 
ENDBRANCH  12  13
ENDBRANCH  11  12
ENDBRANCH   9  11
ENDBRANCH   8   9
ENDBRANCH   6   8
BRANCH   5  20
HETATM   20  S           1     173.440 185.246 268.329  0.00  0.00    -0.107 SA
BRANCH  20  21
HETATM   21  C           1     174.577 186.396 267.505  0.00  0.00     0.119 C 
BRANCH  21  22
HETATM   22  C           1     173.975 187.767 267.486  0.00  0.00    -0.049 A 
HETATM   23  C           1     174.724 188.865 267.908  0.00  0.00     0.008 A 
HETATM   24  C           1     174.163 190.141 267.888  0.00  0.00     0.001 A 
HETATM   25  C           1     172.851 190.320 267.449  0.00  0.00     0.000 A 
HETATM   26  C           1     172.101 189.222 267.027  0.00  0.00     0.001 A 
HETATM   27  C           1     172.662 187.945 267.046  0.00  0.00     0.008 A 
ENDBRANCH  21  22
ENDBRANCH  20  21
ENDBRANCH   5  20
BRANCH   2  28
HETATM   28  C           1     176.146 185.662 273.533  0.00  0.00    -0.025 A 
HETATM   29  C           1     175.579 185.088 274.671  0.00  0.00     0.013 A 
HETATM   30  C           1     176.241 185.170 275.896  0.00  0.00     0.007 A 
HETATM   31  C           1     177.470 185.825 275.983  0.00  0.00    -0.062 A 
HETATM   32  C           1     178.180 185.911 277.297  0.00  0.00     0.048 C 
HETATM   33  C           1     178.036 186.398 274.844  0.00  0.00     0.007 A 
HETATM   34  C           1     177.374 186.317 273.619  0.00  0.00     0.013 A 
ENDBRANCH   2  28
TORSDOF 9
ENDMDL
MODEL 5
REMARK VINA RESULT:      -7.7      2.595      6.408
REMARK  9 active torsions:
REMARK  status: ('A' for Active; 'I' for Inactive)
REMARK    1  A    between atoms: C_2  and  C_18 
REMARK    2  A    between atoms: C_5  and  S_9 
REMARK    3  A    between atoms: C_6  and  C_8 
REMARK    4  A    between atoms: C_8  and  N_17 
REMARK    5  A    between atoms: S_9  and  C_10 
REMARK    6  A    between atoms: C_10  and  C_11 
REMARK    7  A    between atoms: N_17  and  C_19 
REMARK    8  A    between atoms: C_19  and  C_20 
REMARK    9  A    between atoms: C_20  and  N_21 
ROOT
HETATM    1  C           1     176.098 184.810 271.249  0.00  0.00     0.101 A 
HETATM    2  C           1     175.518 185.522 272.286  0.00  0.00    -0.010 A 
HETATM    3  N           1     175.542 184.678 270.025  0.00  0.00    -0.359 N 
ATOM      4  HN          1     175.997 184.145 269.284  1.00  0.00     0.166 HD
HETATM    5  C           1     174.352 185.288 269.831  0.00  0.00     0.077 A 
HETATM    6  C           1     173.695 186.022 270.806  0.00  0.00     0.004 A 
HETATM    7  C           1     174.292 186.140 272.056  0.00  0.00     0.025 A 
ENDROOT
BRANCH   6   8
HETATM    8  C           1     172.376 186.672 270.521  0.00  0.00     0.311 C 
BRANCH   8   9
HETATM    9  N           1     172.483 188.090 270.739  0.00  0.00     0.089 N 
HETATM   10  H           1     173.396 188.304 271.140  0.00  0.00     0.316 HD
BRANCH   9  11
HETATM   11  C           1     171.451 188.468 271.666  0.00  0.00     0.300 C 
BRANCH  11  12
HETATM   12  C           1     171.975 189.556 272.593  0.00  0.00     0.302 C 
BRANCH  12  13
HETATM   13  N           1     171.980 189.072 273.947  0.00  0.00     0.093 N 
HETATM   14  C           1     171.056 187.925 273.997  0.00  0.00     0.302 C 
HETATM   15  C           1     171.145 187.137 275.322  0.00  0.00     0.302 C 
HETATM   16  N           1     172.512 186.679 275.627  0.00  0.00     0.087 N 
HETATM   17  C           1     172.497 186.188 276.979  0.00  0.00     0.310 C 
HETATM   18  C           1     173.436 187.826 275.577  0.00  0.00     0.302 C 
HETATM   19  C           1     173.347 188.613 274.253  0.00  0.00     0.302 C 
ENDBRANCH  12  13
ENDBRANCH  11  12
ENDBRANCH   9  11
ENDBRANCH   8   9
ENDBRANCH   6   8
BRANCH   5  20
HETATM   20  S           1     173.568 185.138 268.201  0.00  0.00    -0.107 SA
BRANCH  20  21
HETATM   21  C           1     174.671 186.349 267.419  0.00  0.00     0.119 C 
BRANCH  21  22
HETATM   22  C           1     174.034 187.704 267.460  0.00  0.00    -0.049 A 
HETATM   23  C           1     172.743 187.884 266.963  0.00  0.00     0.008 A 
HETATM   24  C           1     172.151 189.146 267.003  0.00  0.00     0.001 A 
HETATM   25  C           1     172.849 190.228 267.539  0.00  0.00     0.000 A 
HETATM   26  C           1     174.140 190.048 268.036  0.00  0.00     0.001 A 
HETATM   27  C           1     174.733 188.786 267.996  0.00  0.00     0.008 A 
ENDBRANCH  21  22
ENDBRANCH  20  21
ENDBRANCH   5  20
BRANCH   2  28
HETATM   28  C           1     176.120 185.615 273.476  0.00  0.00    -0.025 A 
HETATM   29  C           1     175.551 185.005 274.594  0.00  0.00     0.013 A 
HETATM   30  C           1     176.178 185.103 275.836  0.00  0.00     0.007 A 
HETATM   31  C           1     177.374 185.811 275.961  0.00  0.00    -0.062 A 
HETATM   32  C           1     178.046 185.915 277.293  0.00  0.00     0.048 C 
HETATM   33  C           1     177.942 186.421 274.842  0.00  0.00     0.007 A 
HETATM   34  C           1     177.315 186.323 273.600  0.00  0.00     0.013 A 
ENDBRANCH   2  28
TORSDOF 9
ENDMDL
MODEL 6
REMARK VINA RESULT:      -7.7      9.019     14.744
REMARK  9 active torsions:
REMARK  status: ('A' for Active; 'I' for Inactive)
REMARK    1  A    between atoms: C_2  and  C_18 
REMARK    2  A    between atoms: C_5  and  S_9 
REMARK    3  A    between atoms: C_6  and  C_8 
REMARK    4  A    between atoms: C_8  and  N_17 
REMARK    5  A    between atoms: S_9  and  C_10 
REMARK    6  A    between atoms: C_10  and  C_11 
REMARK    7  A    between atoms: N_17  and  C_19 
REMARK    8  A    between atoms: C_19  and  C_20 
REMARK    9  A    between atoms: C_20  and  N_21 
ROOT
HETATM    1  C           1     170.925 189.021 279.829  0.00  0.00     0.101 A 
HETATM    2  C           1     171.561 189.236 281.041  0.00  0.00    -0.010 A 
HETATM    3  N           1     171.154 187.950 279.039  0.00  0.00    -0.359 N 
ATOM      4  HN          1     170.668 187.824 278.151  1.00  0.00     0.166 HD
HETATM    5  C           1     172.060 187.052 279.485  0.00  0.00     0.077 A 
HETATM    6  C           1     172.746 187.178 280.683  0.00  0.00     0.004 A 
HETATM    7  C           1     172.488 188.293 281.474  0.00  0.00     0.025 A 
ENDROOT
BRANCH   6   8
HETATM    8  C           1     173.737 186.142 281.114  0.00  0.00     0.311 C 
BRANCH   8   9
HETATM    9  N           1     173.131 185.274 282.088  0.00  0.00     0.089 N 
HETATM   10  H           1     172.569 185.828 282.734  0.00  0.00     0.316 HD
BRANCH   9  11
HETATM   11  C           1     174.188 184.621 282.810  0.00  0.00     0.300 C 
BRANCH  11  12
HETATM   12  C           1     174.749 185.571 283.860  0.00  0.00     0.302 C 
BRANCH  12  13
HETATM   13  N           1     173.831 185.663 284.963  0.00  0.00     0.093 N 
HETATM   14  C           1     174.580 185.296 286.178  0.00  0.00     0.302 C 
HETATM   15  C           1     173.802 185.592 287.478  0.00  0.00     0.302 C 
HETATM   16  N           1     173.362 186.995 287.579  0.00  0.00     0.087 N 
HETATM   17  C           1     172.455 187.071 288.692  0.00  0.00     0.310 C 
HETATM   18  C           1     172.613 187.362 286.364  0.00  0.00     0.302 C 
HETATM   19  C           1     173.391 187.066 285.064  0.00  0.00     0.302 C 
ENDBRANCH  12  13
ENDBRANCH  11  12
ENDBRANCH   9  11
ENDBRANCH   8   9
ENDBRANCH   6   8
BRANCH   5  20
HETATM   20  S           1     172.398 185.595 278.456  0.00  0.00    -0.107 SA
BRANCH  20  21
HETATM   21  C           1     172.896 186.574 277.012  0.00  0.00     0.119 C 
BRANCH  21  22
HETATM   22  C           1     174.290 186.202 276.612  0.00  0.00    -0.049 A 
HETATM   23  C           1     174.500 185.285 275.582  0.00  0.00     0.008 A 
HETATM   24  C           1     175.799 184.939 275.210  0.00  0.00     0.001 A 
HETATM   25  C           1     176.888 185.510 275.868  0.00  0.00     0.000 A 
HETATM   26  C           1     176.679 186.427 276.897  0.00  0.00     0.001 A 
HETATM   27  C           1     175.380 186.773 277.270  0.00  0.00     0.008 A 
ENDBRANCH  21  22
ENDBRANCH  20  21
ENDBRANCH   5  20
BRANCH   2  28
HETATM   28  C           1     171.290 190.319 281.777  0.00  0.00    -0.025 A 
HETATM   29  C           1     170.338 190.248 282.795  0.00  0.00     0.013 A 
HETATM   30  C           1     170.055 191.378 283.563  0.00  0.00     0.007 A 
HETATM   31  C           1     170.721 192.577 283.313  0.00  0.00    -0.062 A 
HETATM   32  C           1     170.417 193.789 284.137  0.00  0.00     0.048 C 
HETATM   33  C           1     171.672 192.647 282.294  0.00  0.00     0.007 A 
HETATM   34  C           1     171.956 191.517 281.527  0.00  0.00     0.013 A 
ENDBRANCH   2  28
TORSDOF 9
ENDMDL
MODEL 7
REMARK VINA RESULT:      -7.4      2.091      5.652
REMARK  9 active torsions:
REMARK  status: ('A' for Active; 'I' for Inactive)
REMARK    1  A    between atoms: C_2  and  C_18 
REMARK    2  A    between atoms: C_5  and  S_9 
REMARK    3  A    between atoms: C_6  and  C_8 
REMARK    4  A    between atoms: C_8  and  N_17 
REMARK    5  A    between atoms: S_9  and  C_10 
REMARK    6  A    between atoms: C_10  and  C_11 
REMARK    7  A    between atoms: N_17  and  C_19 
REMARK    8  A    between atoms: C_19  and  C_20 
REMARK    9  A    between atoms: C_20  and  N_21 
ROOT
HETATM    1  C           1     176.343 184.821 271.218  0.00  0.00     0.101 A 
HETATM    2  C           1     175.550 185.221 272.280  0.00  0.00    -0.010 A 
HETATM    3  N           1     175.869 184.572 269.978  0.00  0.00    -0.359 N 
ATOM      4  HN          1     176.483 184.278 269.218  1.00  0.00     0.166 HD
HETATM    5  C           1     174.541 184.733 269.794  0.00  0.00     0.077 A 
HETATM    6  C           1     173.667 185.130 270.793  0.00  0.00     0.004 A 
HETATM    7  C           1     174.185 185.379 272.060  0.00  0.00     0.025 A 
ENDROOT
BRANCH   6   8
HETATM    8  C           1     172.204 185.288 270.517  0.00  0.00     0.311 C 
BRANCH   8   9
HETATM    9  N           1     171.784 186.611 270.896  0.00  0.00     0.089 N 
HETATM   10  H           1     171.068 186.546 271.619  0.00  0.00     0.316 HD
BRANCH   9  11
HETATM   11  C           1     171.231 187.244 269.730  0.00  0.00     0.300 C 
BRANCH  11  12
HETATM   12  C           1     172.348 187.894 268.925  0.00  0.00     0.302 C 
BRANCH  12  13
HETATM   13  N           1     173.118 188.755 269.781  0.00  0.00     0.093 N 
HETATM   14  C           1     174.533 188.577 269.410  0.00  0.00     0.302 C 
HETATM   15  C           1     175.464 189.622 270.063  0.00  0.00     0.302 C 
HETATM   16  N           1     175.055 191.010 269.785  0.00  0.00     0.087 N 
HETATM   17  C           1     175.842 191.858 270.641  0.00  0.00     0.310 C 
HETATM   18  C           1     173.640 191.188 270.157  0.00  0.00     0.302 C 
HETATM   19  C           1     172.710 190.144 269.503  0.00  0.00     0.302 C 
ENDBRANCH  12  13
ENDBRANCH  11  12
ENDBRANCH   9  11
ENDBRANCH   8   9
ENDBRANCH   6   8
BRANCH   5  20
HETATM   20  S           1     173.860 184.410 268.142  0.00  0.00    -0.107 SA
BRANCH  20  21
HETATM   21  C           1     175.048 185.496 267.302  0.00  0.00     0.119 C 
BRANCH  21  22
HETATM   22  C           1     175.792 184.714 266.266  0.00  0.00    -0.049 A 
HETATM   23  C           1     175.570 184.962 264.911  0.00  0.00     0.008 A 
HETATM   24  C           1     176.265 184.233 263.946  0.00  0.00     0.001 A 
HETATM   25  C           1     177.181 183.257 264.334  0.00  0.00     0.000 A 
HETATM   26  C           1     177.404 183.009 265.688  0.00  0.00     0.001 A 
HETATM   27  C           1     176.710 183.736 266.654  0.00  0.00     0.008 A 
ENDBRANCH  21  22
ENDBRANCH  20  21
ENDBRANCH   5  20
BRANCH   2  28
HETATM   28  C           1     176.081 185.452 273.486  0.00  0.00    -0.025 A 
HETATM   29  C           1     175.484 184.910 274.625  0.00  0.00     0.013 A 
HETATM   30  C           1     176.037 185.151 275.883  0.00  0.00     0.007 A 
HETATM   31  C           1     177.185 185.934 276.002  0.00  0.00    -0.062 A 
HETATM   32  C           1     177.778 186.192 277.351  0.00  0.00     0.048 C 
HETATM   33  C           1     177.780 186.476 274.863  0.00  0.00     0.007 A 
HETATM   34  C           1     177.228 186.235 273.605  0.00  0.00     0.013 A 
ENDBRANCH   2  28
TORSDOF 9
ENDMDL
MODEL 8
REMARK VINA RESULT:      -7.3      3.124      9.134
REMARK  9 active torsions:
REMARK  status: ('A' for Active; 'I' for Inactive)
REMARK    1  A    between atoms: C_2  and  C_18 
REMARK    2  A    between atoms: C_5  and  S_9 
REMARK    3  A    between atoms: C_6  and  C_8 
REMARK    4  A    between atoms: C_8  and  N_17 
REMARK    5  A    between atoms: S_9  and  C_10 
REMARK    6  A    between atoms: C_10  and  C_11 
REMARK    7  A    between atoms: N_17  and  C_19 
REMARK    8  A    between atoms: C_19  and  C_20 
REMARK    9  A    between atoms: C_20  and  N_21 
ROOT
HETATM    1  C           1     175.680 184.262 269.054  0.00  0.00     0.101 A 
HETATM    2  C           1     175.650 185.065 267.926  0.00  0.00    -0.010 A 
HETATM    3  N           1     175.295 184.675 270.281  0.00  0.00    -0.359 N 
ATOM      4  HN          1     175.331 184.056 271.091  1.00  0.00     0.166 HD
HETATM    5  C           1     174.860 185.950 270.382  0.00  0.00     0.077 A 
HETATM    6  C           1     174.794 186.829 269.312  0.00  0.00     0.004 A 
HETATM    7  C           1     175.197 186.374 268.061  0.00  0.00     0.025 A 
ENDROOT
BRANCH   6   8
HETATM    8  C           1     174.301 188.230 269.498  0.00  0.00     0.311 C 
BRANCH   8   9
HETATM    9  N           1     175.275 189.154 268.981  0.00  0.00     0.089 N 
HETATM   10  H           1     176.204 188.739 269.045  0.00  0.00     0.316 HD
BRANCH   9  11
HETATM   11  C           1     175.224 190.341 269.791  0.00  0.00     0.300 C 
BRANCH  11  12
HETATM   12  C           1     173.972 190.312 270.657  0.00  0.00     0.302 C 
BRANCH  12  13
HETATM   13  N           1     174.239 190.970 271.908  0.00  0.00     0.093 N 
HETATM   14  C           1     173.610 192.301 271.836  0.00  0.00     0.302 C 
HETATM   15  C           1     173.589 193.031 273.196  0.00  0.00     0.302 C 
HETATM   16  N           1     172.946 192.242 274.263  0.00  0.00     0.087 N 
HETATM   17  C           1     173.213 192.919 275.503  0.00  0.00     0.310 C 
HETATM   18  C           1     173.575 190.911 274.334  0.00  0.00     0.302 C 
HETATM   19  C           1     173.596 190.181 272.974  0.00  0.00     0.302 C 
ENDBRANCH  12  13
ENDBRANCH  11  12
ENDBRANCH   9  11
ENDBRANCH   8   9
ENDBRANCH   6   8
BRANCH   5  20
HETATM   20  S           1     174.332 186.548 272.013  0.00  0.00    -0.107 SA
BRANCH  20  21
HETATM   21  C           1     174.829 185.028 272.871  0.00  0.00     0.119 C 
BRANCH  21  22
HETATM   22  C           1     175.807 185.363 273.954  0.00  0.00    -0.049 A 
HETATM   23  C           1     176.955 186.097 273.656  0.00  0.00     0.008 A 
HETATM   24  C           1     177.865 186.410 274.666  0.00  0.00     0.001 A 
HETATM   25  C           1     177.628 185.988 275.974  0.00  0.00     0.000 A 
HETATM   26  C           1     176.480 185.254 276.272  0.00  0.00     0.001 A 
HETATM   27  C           1     175.570 184.941 275.263  0.00  0.00     0.008 A 
ENDBRANCH  21  22
ENDBRANCH  20  21
ENDBRANCH   5  20
BRANCH   2  28
HETATM   28  C           1     176.045 184.595 266.738  0.00  0.00    -0.025 A 
HETATM   29  C           1     177.008 183.588 266.672  0.00  0.00     0.013 A 
HETATM   30  C           1     177.421 183.099 265.433  0.00  0.00     0.007 A 
HETATM   31  C           1     176.873 183.616 264.260  0.00  0.00    -0.062 A 
HETATM   32  C           1     177.315 183.091 262.931  0.00  0.00     0.048 C 
HETATM   33  C           1     175.910 184.624 264.326  0.00  0.00     0.007 A 
HETATM   34  C           1     175.497 185.113 265.566  0.00  0.00     0.013 A 
ENDBRANCH   2  28
TORSDOF 9
ENDMDL
MODEL 9
REMARK VINA RESULT:      -7.2      1.600      2.039
REMARK  9 active torsions:
REMARK  status: ('A' for Active; 'I' for Inactive)
REMARK    1  A    between atoms: C_2  and  C_18 
REMARK    2  A    between atoms: C_5  and  S_9 
REMARK    3  A    between atoms: C_6  and  C_8 
REMARK    4  A    between atoms: C_8  and  N_17 
REMARK    5  A    between atoms: S_9  and  C_10 
REMARK    6  A    between atoms: C_10  and  C_11 
REMARK    7  A    between atoms: N_17  and  C_19 
REMARK    8  A    between atoms: C_19  and  C_20 
REMARK    9  A    between atoms: C_20  and  N_21 
ROOT
HETATM    1  C           1     173.931 185.861 272.908  0.00  0.00     0.101 A 
HETATM    2  C           1     175.287 185.586 272.831  0.00  0.00    -0.010 A 
HETATM    3  N           1     173.103 185.860 271.841  0.00  0.00    -0.359 N 
ATOM      4  HN          1     172.109 186.069 271.934  1.00  0.00     0.166 HD
HETATM    5  C           1     173.657 185.570 270.644  0.00  0.00     0.077 A 
HETATM    6  C           1     175.001 185.282 270.466  0.00  0.00     0.004 A 
HETATM    7  C           1     175.829 185.290 271.584  0.00  0.00     0.025 A 
ENDROOT
BRANCH   6   8
HETATM    8  C           1     175.547 184.968 269.108  0.00  0.00     0.311 C 
BRANCH   8   9
HETATM    9  N           1     175.749 183.549 268.987  0.00  0.00     0.089 N 
HETATM   10  H           1     176.591 183.281 269.497  0.00  0.00     0.316 HD
BRANCH   9  11
HETATM   11  C           1     175.917 183.249 267.591  0.00  0.00     0.300 C 
BRANCH  11  12
HETATM   12  C           1     176.348 184.506 266.849  0.00  0.00     0.302 C 
BRANCH  12  13
HETATM   13  N           1     177.009 184.139 265.626  0.00  0.00     0.093 N 
HETATM   14  C           1     177.240 182.684 265.681  0.00  0.00     0.302 C 
HETATM   15  C           1     177.711 182.097 264.334  0.00  0.00     0.302 C 
HETATM   16  N           1     176.796 182.406 263.220  0.00  0.00     0.087 N 
HETATM   17  C           1     177.467 182.023 262.007  0.00  0.00     0.310 C 
HETATM   18  C           1     176.565 183.861 263.165  0.00  0.00     0.302 C 
HETATM   19  C           1     176.094 184.448 264.512  0.00  0.00     0.302 C 
ENDBRANCH  12  13
ENDBRANCH  11  12
ENDBRANCH   9  11
ENDBRANCH   8   9
ENDBRANCH   6   8
BRANCH   5  20
HETATM   20  S           1     172.580 185.557 269.182  0.00  0.00    -0.107 SA
BRANCH  20  21
HETATM   21  C           1     171.880 187.196 269.528  0.00  0.00     0.119 C 
BRANCH  21  22
HETATM   22  C           1     172.847 188.253 269.093  0.00  0.00    -0.049 A 
HETATM   23  C           1     172.896 189.474 269.767  0.00  0.00     0.008 A 
HETATM   24  C           1     173.797 190.458 269.362  0.00  0.00     0.001 A 
HETATM   25  C           1     174.649 190.223 268.283  0.00  0.00     0.000 A 
HETATM   26  C           1     174.600 189.003 267.609  0.00  0.00     0.001 A 
HETATM   27  C           1     173.699 188.018 268.013  0.00  0.00     0.008 A 
ENDBRANCH  21  22
ENDBRANCH  20  21
ENDBRANCH   5  20
BRANCH   2  28
HETATM   28  C           1     176.054 185.602 273.926  0.00  0.00    -0.025 A 
HETATM   29  C           1     175.641 184.930 275.076  0.00  0.00     0.013 A 
HETATM   30  C           1     176.441 184.948 276.219  0.00  0.00     0.007 A 
HETATM   31  C           1     177.653 185.637 276.212  0.00  0.00    -0.062 A 
HETATM   32  C           1     178.512 185.655 277.437  0.00  0.00     0.048 C 
HETATM   33  C           1     178.066 186.309 275.061  0.00  0.00     0.007 A 
HETATM   34  C           1     177.266 186.291 273.918  0.00  0.00     0.013 A 
ENDBRANCH   2  28
TORSDOF 9
ENDMDL
