MODEL 1
REMARK VINA RESULT:      -9.2      0.000      0.000
REMARK  9 active torsions:
REMARK  status: ('A' for Active; 'I' for Inactive)
REMARK    1  A    between atoms: C_4  and  S_31 
REMARK    2  A    between atoms: C_5  and  C_7 
REMARK    3  A    between atoms: C_7  and  N_8 
REMARK    4  A    between atoms: N_8  and  C_9 
REMARK    5  A    between atoms: C_9  and  C_10 
REMARK    6  A    between atoms: C_10  and  C_11 
REMARK    7  A    between atoms: N_14  and  C_17 
REMARK    8  A    between atoms: S_31  and  C_38 
REMARK    9  A    between atoms: C_32  and  C_38 
ROOT
HETATM    1  C           1     173.449 186.787 280.379  0.00  0.00    -0.008 A 
HETATM    2  C           1     172.936 188.003 280.802  0.00  0.00     0.130 A 
HETATM    3  N           1     172.581 188.265 282.078  0.00  0.00    -0.253 NA
HETATM    4  C           1     172.749 187.265 282.970  0.00  0.00     0.101 A 
HETATM    5  C           1     173.253 186.016 282.644  0.00  0.00     0.006 A 
HETATM    6  C           1     173.610 185.776 281.321  0.00  0.00     0.025 A 
HETATM    7  C           1     173.782 186.591 279.098  0.00  0.00    -0.024 A 
HETATM    8  C           1     172.923 185.886 278.255  0.00  0.00     0.014 A 
HETATM    9  C           1     173.270 185.681 276.919  0.00  0.00     0.030 A 
HETATM   10  C           1     174.475 186.181 276.428  0.00  0.00     0.029 A 
HETATM   11  C           1     175.333 186.886 277.271  0.00  0.00     0.030 A 
HETATM   12  C           1     174.987 187.091 278.606  0.00  0.00     0.014 A 
HETATM   13  N           1     174.790 185.995 275.216  0.00  0.00    -0.390 N 
HETATM   14  C           1     176.060 186.522 274.697  0.00  0.00     0.149 C 
HETATM   15  C           1     173.885 185.252 274.327  0.00  0.00     0.149 C 
ENDROOT
BRANCH   5  16
HETATM   16  C           1     173.411 184.955 283.687  0.00  0.00     0.311 C 
BRANCH  16  17
HETATM   17  N           1     174.748 184.991 284.212  0.00  0.00     0.087 N 
HETATM   18  H           1     175.381 184.524 283.564  0.00  0.00     0.316 HD
BRANCH  17  19
HETATM   19  C           1     174.744 184.291 285.469  0.00  0.00     0.270 C 
BRANCH  19  20
HETATM   20  C           1     175.500 185.109 286.508  0.00  0.00     0.034 C 
BRANCH  20  21
HETATM   21  C           1     174.506 185.793 287.438  0.00  0.00    -0.010 C 
HETATM   22  C           1     173.173 185.056 287.375  0.00  0.00     0.035 C 
HETATM   23  C           1     172.200 185.579 288.430  0.00  0.00     0.273 C 
HETATM   24  N           1     172.777 185.510 289.773  0.00  0.00     0.093 N 
HETATM   25  C           1     174.020 186.280 289.862  0.00  0.00     0.273 C 
HETATM   26  C           1     175.058 185.781 288.859  0.00  0.00     0.035 C 
BRANCH  24  27
HETATM   27  C           1     171.819 186.126 290.650  0.00  0.00     0.223 C 
HETATM   28  C           1     172.220 185.943 292.106  0.00  0.00     0.036 C 
HETATM   29  C           1     171.649 187.154 292.843  0.00  0.00     0.002 C 
HETATM   30  C           1     171.176 188.128 291.764  0.00  0.00     0.002 C 
HETATM   31  C           1     171.812 187.633 290.475  0.00  0.00     0.036 C 
ENDBRANCH  24  27
ENDBRANCH  20  21
ENDBRANCH  19  20
ENDBRANCH  17  19
ENDBRANCH  16  17
ENDBRANCH   5  16
BRANCH   4  32
HETATM   32  S           1     172.285 187.574 284.698  0.00  0.00    -0.105 SA
BRANCH  32  33
HETATM   33  C           1     170.995 188.777 284.270  0.00  0.00     0.119 C 
BRANCH  33  34
HETATM   34  C           1     170.082 188.968 285.441  0.00  0.00    -0.049 A 
HETATM   35  C           1     168.955 189.781 285.321  0.00  0.00     0.008 A 
HETATM   36  C           1     168.105 189.961 286.412  0.00  0.00     0.001 A 
HETATM   37  C           1     168.381 189.326 287.622  0.00  0.00     0.000 A 
HETATM   38  C           1     169.508 188.513 287.743  0.00  0.00     0.001 A 
HETATM   39  C           1     170.358 188.334 286.652  0.00  0.00     0.008 A 
ENDBRANCH  33  34
ENDBRANCH  32  33
ENDBRANCH   4  32
TORSDOF 9
ENDMDL
MODEL 2
REMARK VINA RESULT:      -8.6     11.109     15.776
REMARK  9 active torsions:
REMARK  status: ('A' for Active; 'I' for Inactive)
REMARK    1  A    between atoms: C_4  and  S_31 
REMARK    2  A    between atoms: C_5  and  C_7 
REMARK    3  A    between atoms: C_7  and  N_8 
REMARK    4  A    between atoms: N_8  and  C_9 
REMARK    5  A    between atoms: C_9  and  C_10 
REMARK    6  A    between atoms: C_10  and  C_11 
REMARK    7  A    between atoms: N_14  and  C_17 
REMARK    8  A    between atoms: S_31  and  C_38 
REMARK    9  A    between atoms: C_32  and  C_38 
ROOT
HETATM    1  C           1     176.021 183.870 268.192  0.00  0.00    -0.008 A 
HETATM    2  C           1     176.694 183.825 269.402  0.00  0.00     0.130 A 
HETATM    3  N           1     176.402 184.620 270.454  0.00  0.00    -0.253 NA
HETATM    4  C           1     175.390 185.499 270.286  0.00  0.00     0.101 A 
HETATM    5  C           1     174.659 185.619 269.116  0.00  0.00     0.006 A 
HETATM    6  C           1     174.983 184.786 268.049  0.00  0.00     0.025 A 
HETATM    7  C           1     176.359 183.054 267.188  0.00  0.00    -0.024 A 
HETATM    8  C           1     177.137 183.533 266.134  0.00  0.00     0.014 A 
HETATM    9  C           1     177.490 182.682 265.085  0.00  0.00     0.030 A 
HETATM   10  C           1     177.064 181.354 265.092  0.00  0.00     0.029 A 
HETATM   11  C           1     176.286 180.876 266.146  0.00  0.00     0.030 A 
HETATM   12  C           1     175.933 181.727 267.194  0.00  0.00     0.014 A 
HETATM   13  N           1     177.384 180.582 264.141  0.00  0.00    -0.390 N 
HETATM   14  C           1     176.936 179.182 264.148  0.00  0.00     0.149 C 
HETATM   15  C           1     178.204 181.086 263.030  0.00  0.00     0.149 C 
ENDROOT
BRANCH   5  16
HETATM   16  C           1     173.550 186.617 269.001  0.00  0.00     0.311 C 
BRANCH  16  17
HETATM   17  N           1     173.293 186.893 267.614  0.00  0.00     0.087 N 
HETATM   18  H           1     174.063 186.537 267.049  0.00  0.00     0.316 HD
BRANCH  17  19
HETATM   19  C           1     173.205 188.321 267.461  0.00  0.00     0.270 C 
BRANCH  19  20
HETATM   20  C           1     174.583 188.939 267.660  0.00  0.00     0.034 C 
BRANCH  20  21
HETATM   21  C           1     174.466 190.161 268.561  0.00  0.00    -0.010 C 
HETATM   22  C           1     173.012 190.334 268.985  0.00  0.00     0.035 C 
HETATM   23  C           1     172.869 191.426 270.043  0.00  0.00     0.273 C 
HETATM   24  N           1     173.727 191.167 271.200  0.00  0.00     0.093 N 
HETATM   25  C           1     175.136 191.075 270.812  0.00  0.00     0.273 C 
HETATM   26  C           1     175.361 189.970 269.782  0.00  0.00     0.035 C 
BRANCH  24  27
HETATM   27  C           1     173.586 192.308 272.064  0.00  0.00     0.223 C 
HETATM   28  C           1     173.547 191.882 273.524  0.00  0.00     0.036 C 
HETATM   29  C           1     174.125 193.059 274.309  0.00  0.00     0.002 C 
HETATM   30  C           1     174.726 194.009 273.275  0.00  0.00     0.002 C 
HETATM   31  C           1     174.812 193.199 271.991  0.00  0.00     0.036 C 
ENDBRANCH  24  27
ENDBRANCH  20  21
ENDBRANCH  19  20
ENDBRANCH  17  19
ENDBRANCH  16  17
ENDBRANCH   5  16
BRANCH   4  32
HETATM   32  S           1     174.964 186.587 271.675  0.00  0.00    -0.105 SA
BRANCH  32  33
HETATM   33  C           1     174.861 185.227 272.875  0.00  0.00     0.119 C 
BRANCH  33  34
HETATM   34  C           1     175.848 185.458 273.976  0.00  0.00    -0.049 A 
HETATM   35  C           1     175.585 184.977 275.259  0.00  0.00     0.008 A 
HETATM   36  C           1     176.504 185.192 276.286  0.00  0.00     0.001 A 
HETATM   37  C           1     177.686 185.886 276.030  0.00  0.00     0.000 A 
HETATM   38  C           1     177.949 186.366 274.747  0.00  0.00     0.001 A 
HETATM   39  C           1     177.030 186.152 273.721  0.00  0.00     0.008 A 
ENDBRANCH  33  34
ENDBRANCH  32  33
ENDBRANCH   4  32
TORSDOF 9
ENDMDL
MODEL 3
REMARK VINA RESULT:      -8.6      9.743     16.862
REMARK  9 active torsions:
REMARK  status: ('A' for Active; 'I' for Inactive)
REMARK    1  A    between atoms: C_4  and  S_31 
REMARK    2  A    between atoms: C_5  and  C_7 
REMARK    3  A    between atoms: C_7  and  N_8 
REMARK    4  A    between atoms: N_8  and  C_9 
REMARK    5  A    between atoms: C_9  and  C_10 
REMARK    6  A    between atoms: C_10  and  C_11 
REMARK    7  A    between atoms: N_14  and  C_17 
REMARK    8  A    between atoms: S_31  and  C_38 
REMARK    9  A    between atoms: C_32  and  C_38 
ROOT
HETATM    1  C           1     175.579 185.420 270.947  0.00  0.00    -0.008 A 
HETATM    2  C           1     176.142 184.300 270.359  0.00  0.00     0.130 A 
HETATM    3  N           1     176.220 184.111 269.024  0.00  0.00    -0.253 NA
HETATM    4  C           1     175.713 185.090 268.244  0.00  0.00     0.101 A 
HETATM    5  C           1     175.131 186.246 268.738  0.00  0.00     0.006 A 
HETATM    6  C           1     175.063 186.411 270.117  0.00  0.00     0.025 A 
HETATM    7  C           1     175.531 185.546 272.278  0.00  0.00    -0.024 A 
HETATM    8  C           1     174.344 185.281 272.961  0.00  0.00     0.014 A 
HETATM    9  C           1     174.295 185.413 274.349  0.00  0.00     0.030 A 
HETATM   10  C           1     175.432 185.810 275.053  0.00  0.00     0.029 A 
HETATM   11  C           1     176.618 186.074 274.369  0.00  0.00     0.030 A 
HETATM   12  C           1     176.668 185.943 272.981  0.00  0.00     0.014 A 
HETATM   13  N           1     175.387 185.929 276.313  0.00  0.00    -0.390 N 
HETATM   14  C           1     176.585 186.347 277.054  0.00  0.00     0.149 C 
HETATM   15  C           1     174.137 185.650 277.033  0.00  0.00     0.149 C 
ENDROOT
BRANCH   5  16
HETATM   16  C           1     174.588 187.289 267.812  0.00  0.00     0.311 C 
BRANCH  16  17
HETATM   17  N           1     175.383 188.483 267.914  0.00  0.00     0.087 N 
HETATM   18  H           1     175.866 188.493 268.811  0.00  0.00     0.316 HD
BRANCH  17  19
HETATM   19  C           1     174.492 189.610 267.835  0.00  0.00     0.270 C 
BRANCH  19  20
HETATM   20  C           1     173.262 189.346 268.694  0.00  0.00     0.034 C 
BRANCH  20  21
HETATM   21  C           1     173.425 190.036 270.042  0.00  0.00    -0.010 C 
HETATM   22  C           1     174.558 191.052 269.950  0.00  0.00     0.035 C 
HETATM   23  C           1     174.637 191.909 271.212  0.00  0.00     0.273 C 
HETATM   24  N           1     173.361 192.567 271.494  0.00  0.00     0.093 N 
HETATM   25  C           1     172.281 191.592 271.660  0.00  0.00     0.273 C 
HETATM   26  C           1     172.116 190.724 270.414  0.00  0.00     0.035 C 
BRANCH  24  27
HETATM   27  C           1     173.532 193.246 272.750  0.00  0.00     0.223 C 
HETATM   28  C           1     173.377 192.280 273.915  0.00  0.00     0.036 C 
HETATM   29  C           1     174.251 192.845 275.034  0.00  0.00     0.002 C 
HETATM   30  C           1     175.089 193.956 274.403  0.00  0.00     0.002 C 
HETATM   31  C           1     174.955 193.753 272.902  0.00  0.00     0.036 C 
ENDBRANCH  24  27
ENDBRANCH  20  21
ENDBRANCH  19  20
ENDBRANCH  17  19
ENDBRANCH  16  17
ENDBRANCH   5  16
BRANCH   4  32
HETATM   32  S           1     175.798 184.879 266.443  0.00  0.00    -0.105 SA
BRANCH  32  33
HETATM   33  C           1     176.842 183.397 266.538  0.00  0.00     0.119 C 
BRANCH  33  34
HETATM   34  C           1     177.250 182.984 265.159  0.00  0.00    -0.049 A 
HETATM   35  C           1     176.932 183.792 264.067  0.00  0.00     0.008 A 
HETATM   36  C           1     177.311 183.407 262.781  0.00  0.00     0.001 A 
HETATM   37  C           1     178.008 182.215 262.587  0.00  0.00     0.000 A 
HETATM   38  C           1     178.326 181.407 263.678  0.00  0.00     0.001 A 
HETATM   39  C           1     177.947 181.791 264.964  0.00  0.00     0.008 A 
ENDBRANCH  33  34
ENDBRANCH  32  33
ENDBRANCH   4  32
TORSDOF 9
ENDMDL
MODEL 4
REMARK VINA RESULT:      -8.6      9.659     16.281
REMARK  9 active torsions:
REMARK  status: ('A' for Active; 'I' for Inactive)
REMARK    1  A    between atoms: C_4  and  S_31 
REMARK    2  A    between atoms: C_5  and  C_7 
REMARK    3  A    between atoms: C_7  and  N_8 
REMARK    4  A    between atoms: N_8  and  C_9 
REMARK    5  A    between atoms: C_9  and  C_10 
REMARK    6  A    between atoms: C_10  and  C_11 
REMARK    7  A    between atoms: N_14  and  C_17 
REMARK    8  A    between atoms: S_31  and  C_38 
REMARK    9  A    between atoms: C_32  and  C_38 
ROOT
HETATM    1  C           1     175.531 185.439 270.954  0.00  0.00    -0.008 A 
HETATM    2  C           1     176.125 184.333 270.368  0.00  0.00     0.130 A 
HETATM    3  N           1     176.203 184.140 269.034  0.00  0.00    -0.253 NA
HETATM    4  C           1     175.662 185.101 268.252  0.00  0.00     0.101 A 
HETATM    5  C           1     175.048 186.241 268.744  0.00  0.00     0.006 A 
HETATM    6  C           1     174.983 186.410 270.123  0.00  0.00     0.025 A 
HETATM    7  C           1     175.487 185.570 272.285  0.00  0.00    -0.024 A 
HETATM    8  C           1     174.312 185.272 272.975  0.00  0.00     0.014 A 
HETATM    9  C           1     174.265 185.409 274.363  0.00  0.00     0.030 A 
HETATM   10  C           1     175.393 185.843 275.059  0.00  0.00     0.029 A 
HETATM   11  C           1     176.568 186.139 274.368  0.00  0.00     0.030 A 
HETATM   12  C           1     176.615 186.003 272.981  0.00  0.00     0.014 A 
HETATM   13  N           1     175.351 185.967 276.318  0.00  0.00    -0.390 N 
HETATM   14  C           1     176.540 186.423 277.052  0.00  0.00     0.149 C 
HETATM   15  C           1     174.113 185.654 277.046  0.00  0.00     0.149 C 
ENDROOT
BRANCH   5  16
HETATM   16  C           1     174.470 187.263 267.816  0.00  0.00     0.311 C 
BRANCH  16  17
HETATM   17  N           1     175.311 188.429 267.802  0.00  0.00     0.087 N 
HETATM   18  H           1     176.121 188.271 268.400  0.00  0.00     0.316 HD
BRANCH  17  19
HETATM   19  C           1     174.541 189.530 268.317  0.00  0.00     0.270 C 
BRANCH  19  20
HETATM   20  C           1     175.295 190.184 269.467  0.00  0.00     0.034 C 
BRANCH  20  21
HETATM   21  C           1     174.413 190.200 270.709  0.00  0.00    -0.010 C 
HETATM   22  C           1     173.005 189.758 270.329  0.00  0.00     0.035 C 
HETATM   23  C           1     172.130 189.568 271.566  0.00  0.00     0.273 C 
HETATM   24  N           1     172.738 188.634 272.514  0.00  0.00     0.093 N 
HETATM   25  C           1     174.061 189.091 272.944  0.00  0.00     0.273 C 
HETATM   26  C           1     175.005 189.262 271.756  0.00  0.00     0.035 C 
BRANCH  24  27
HETATM   27  C           1     171.882 188.627 273.670  0.00  0.00     0.223 C 
HETATM   28  C           1     171.140 187.304 273.788  0.00  0.00     0.036 C 
HETATM   29  C           1     170.895 187.104 275.283  0.00  0.00     0.002 C 
HETATM   30  C           1     171.729 188.165 275.999  0.00  0.00     0.002 C 
HETATM   31  C           1     172.697 188.687 274.949  0.00  0.00     0.036 C 
ENDBRANCH  24  27
ENDBRANCH  20  21
ENDBRANCH  19  20
ENDBRANCH  17  19
ENDBRANCH  16  17
ENDBRANCH   5  16
BRANCH   4  32
HETATM   32  S           1     175.745 184.884 266.451  0.00  0.00    -0.105 SA
BRANCH  32  33
HETATM   33  C           1     176.929 183.511 266.543  0.00  0.00     0.119 C 
BRANCH  33  34
HETATM   34  C           1     177.286 183.066 265.160  0.00  0.00    -0.049 A 
HETATM   35  C           1     176.891 183.827 264.059  0.00  0.00     0.008 A 
HETATM   36  C           1     177.222 183.412 262.769  0.00  0.00     0.001 A 
HETATM   37  C           1     177.950 182.238 262.580  0.00  0.00     0.000 A 
HETATM   38  C           1     178.346 181.477 263.680  0.00  0.00     0.001 A 
HETATM   39  C           1     178.014 181.891 264.969  0.00  0.00     0.008 A 
ENDBRANCH  33  34
ENDBRANCH  32  33
ENDBRANCH   4  32
TORSDOF 9
ENDMDL
MODEL 5
REMARK VINA RESULT:      -8.5      5.294     15.575
REMARK  9 active torsions:
REMARK  status: ('A' for Active; 'I' for Inactive)
REMARK    1  A    between atoms: C_4  and  S_31 
REMARK    2  A    between atoms: C_5  and  C_7 
REMARK    3  A    between atoms: C_7  and  N_8 
REMARK    4  A    between atoms: N_8  and  C_9 
REMARK    5  A    between atoms: C_9  and  C_10 
REMARK    6  A    between atoms: C_10  and  C_11 
REMARK    7  A    between atoms: N_14  and  C_17 
REMARK    8  A    between atoms: S_31  and  C_38 
REMARK    9  A    between atoms: C_32  and  C_38 
ROOT
HETATM    1  C           1     173.385 186.565 277.439  0.00  0.00    -0.008 A 
HETATM    2  C           1     172.453 187.456 276.933  0.00  0.00     0.130 A 
HETATM    3  N           1     172.192 187.603 275.616  0.00  0.00    -0.253 NA
HETATM    4  C           1     172.896 186.821 274.769  0.00  0.00     0.101 A 
HETATM    5  C           1     173.848 185.902 275.179  0.00  0.00     0.006 A 
HETATM    6  C           1     174.095 185.773 276.542  0.00  0.00     0.025 A 
HETATM    7  C           1     173.597 186.467 278.756  0.00  0.00    -0.024 A 
HETATM    8  C           1     174.706 187.087 279.331  0.00  0.00     0.014 A 
HETATM    9  C           1     174.927 186.985 280.705  0.00  0.00     0.030 A 
HETATM   10  C           1     174.039 186.264 281.503  0.00  0.00     0.029 A 
HETATM   11  C           1     172.930 185.645 280.927  0.00  0.00     0.030 A 
HETATM   12  C           1     172.708 185.746 279.553  0.00  0.00     0.014 A 
HETATM   13  N           1     174.239 186.171 282.749  0.00  0.00    -0.390 N 
HETATM   14  C           1     173.303 185.412 283.590  0.00  0.00     0.149 C 
HETATM   15  C           1     175.408 186.824 283.356  0.00  0.00     0.149 C 
ENDROOT
BRANCH   5  16
HETATM   16  C           1     174.591 185.069 274.182  0.00  0.00     0.311 C 
BRANCH  16  17
HETATM   17  N           1     175.992 185.390 274.236  0.00  0.00     0.087 N 
HETATM   18  H           1     176.126 186.231 274.796  0.00  0.00     0.316 HD
BRANCH  17  19
HETATM   19  C           1     176.436 185.635 272.889  0.00  0.00     0.270 C 
BRANCH  19  20
HETATM   20  C           1     175.515 184.917 271.912  0.00  0.00     0.034 C 
BRANCH  20  21
HETATM   21  C           1     175.929 185.250 270.485  0.00  0.00    -0.010 C 
HETATM   22  C           1     177.005 184.268 270.033  0.00  0.00     0.035 C 
HETATM   23  C           1     177.318 184.432 268.548  0.00  0.00     0.273 C 
HETATM   24  N           1     176.111 184.305 267.729  0.00  0.00     0.093 N 
HETATM   25  C           1     175.101 185.296 268.105  0.00  0.00     0.273 C 
HETATM   26  C           1     174.708 185.162 269.575  0.00  0.00     0.035 C 
BRANCH  24  27
HETATM   27  C           1     176.516 184.585 266.378  0.00  0.00     0.223 C 
HETATM   28  C           1     177.114 183.350 265.722  0.00  0.00     0.036 C 
HETATM   29  C           1     176.821 183.496 264.230  0.00  0.00     0.002 C 
HETATM   30  C           1     175.838 184.659 264.098  0.00  0.00     0.002 C 
HETATM   31  C           1     175.314 184.898 265.505  0.00  0.00     0.036 C 
ENDBRANCH  24  27
ENDBRANCH  20  21
ENDBRANCH  19  20
ENDBRANCH  17  19
ENDBRANCH  16  17
ENDBRANCH   5  16
BRANCH   4  32
HETATM   32  S           1     172.578 186.985 272.989  0.00  0.00    -0.105 SA
BRANCH  32  33
HETATM   33  C           1     173.848 188.260 272.749  0.00  0.00     0.119 C 
BRANCH  33  34
HETATM   34  C           1     174.018 188.526 271.287  0.00  0.00    -0.049 A 
HETATM   35  C           1     172.981 188.236 270.400  0.00  0.00     0.008 A 
HETATM   36  C           1     173.139 188.483 269.036  0.00  0.00     0.001 A 
HETATM   37  C           1     174.334 189.021 268.560  0.00  0.00     0.000 A 
HETATM   38  C           1     175.372 189.311 269.446  0.00  0.00     0.001 A 
HETATM   39  C           1     175.213 189.063 270.809  0.00  0.00     0.008 A 
ENDBRANCH  33  34
ENDBRANCH  32  33
ENDBRANCH   4  32
TORSDOF 9
ENDMDL
MODEL 6
REMARK VINA RESULT:      -8.4      9.766     16.091
REMARK  9 active torsions:
REMARK  status: ('A' for Active; 'I' for Inactive)
REMARK    1  A    between atoms: C_4  and  S_31 
REMARK    2  A    between atoms: C_5  and  C_7 
REMARK    3  A    between atoms: C_7  and  N_8 
REMARK    4  A    between atoms: N_8  and  C_9 
REMARK    5  A    between atoms: C_9  and  C_10 
REMARK    6  A    between atoms: C_10  and  C_11 
REMARK    7  A    between atoms: N_14  and  C_17 
REMARK    8  A    between atoms: S_31  and  C_38 
REMARK    9  A    between atoms: C_32  and  C_38 
ROOT
HETATM    1  C           1     175.863 185.134 271.025  0.00  0.00    -0.008 A 
HETATM    2  C           1     176.659 184.088 270.590  0.00  0.00     0.130 A 
HETATM    3  N           1     176.886 183.808 269.288  0.00  0.00    -0.253 NA
HETATM    4  C           1     176.291 184.615 268.383  0.00  0.00     0.101 A 
HETATM    5  C           1     175.479 185.686 268.720  0.00  0.00     0.006 A 
HETATM    6  C           1     175.263 185.948 270.069  0.00  0.00     0.025 A 
HETATM    7  C           1     175.677 185.358 272.331  0.00  0.00    -0.024 A 
HETATM    8  C           1     174.497 184.943 272.947  0.00  0.00     0.014 A 
HETATM    9  C           1     174.303 185.177 274.310  0.00  0.00     0.030 A 
HETATM   10  C           1     175.289 185.825 275.053  0.00  0.00     0.029 A 
HETATM   11  C           1     176.469 186.239 274.436  0.00  0.00     0.030 A 
HETATM   12  C           1     176.663 186.006 273.074  0.00  0.00     0.014 A 
HETATM   13  N           1     175.113 186.036 276.289  0.00  0.00    -0.390 N 
HETATM   14  C           1     176.152 186.719 277.073  0.00  0.00     0.149 C 
HETATM   15  C           1     173.869 185.599 276.939  0.00  0.00     0.149 C 
ENDROOT
BRANCH   5  16
HETATM   16  C           1     174.851 186.537 267.662  0.00  0.00     0.311 C 
BRANCH  16  17
HETATM   17  N           1     173.461 186.737 267.968  0.00  0.00     0.087 N 
HETATM   18  H           1     172.891 186.146 267.365  0.00  0.00     0.316 HD
BRANCH  17  19
HETATM   19  C           1     173.152 188.120 267.716  0.00  0.00     0.270 C 
BRANCH  19  20
HETATM   20  C           1     174.445 188.918 267.613  0.00  0.00     0.034 C 
BRANCH  20  21
HETATM   21  C           1     174.364 190.137 268.522  0.00  0.00    -0.010 C 
HETATM   22  C           1     172.921 190.330 268.974  0.00  0.00     0.035 C 
HETATM   23  C           1     172.814 191.418 270.041  0.00  0.00     0.273 C 
HETATM   24  N           1     173.690 191.139 271.180  0.00  0.00     0.093 N 
HETATM   25  C           1     175.090 191.029 270.764  0.00  0.00     0.273 C 
HETATM   26  C           1     175.279 189.926 269.725  0.00  0.00     0.035 C 
BRANCH  24  27
HETATM   27  C           1     173.582 192.278 272.052  0.00  0.00     0.223 C 
HETATM   28  C           1     173.562 191.844 273.510  0.00  0.00     0.036 C 
HETATM   29  C           1     174.172 193.007 274.291  0.00  0.00     0.002 C 
HETATM   30  C           1     174.771 193.954 273.252  0.00  0.00     0.002 C 
HETATM   31  C           1     174.822 193.149 271.963  0.00  0.00     0.036 C 
ENDBRANCH  24  27
ENDBRANCH  20  21
ENDBRANCH  19  20
ENDBRANCH  17  19
ENDBRANCH  16  17
ENDBRANCH   5  16
BRANCH   4  32
HETATM   32  S           1     176.570 184.276 266.621  0.00  0.00    -0.105 SA
BRANCH  32  33
HETATM   33  C           1     175.760 182.653 266.674  0.00  0.00     0.119 C 
BRANCH  33  34
HETATM   34  C           1     174.305 182.831 266.978  0.00  0.00    -0.049 A 
HETATM   35  C           1     173.486 183.520 266.084  0.00  0.00     0.008 A 
HETATM   36  C           1     172.130 183.687 266.367  0.00  0.00     0.001 A 
HETATM   37  C           1     171.594 183.164 267.543  0.00  0.00     0.000 A 
HETATM   38  C           1     172.413 182.474 268.437  0.00  0.00     0.001 A 
HETATM   39  C           1     173.768 182.308 268.154  0.00  0.00     0.008 A 
ENDBRANCH  33  34
ENDBRANCH  32  33
ENDBRANCH   4  32
TORSDOF 9
ENDMDL
MODEL 7
REMARK VINA RESULT:      -8.2      5.895     12.262
REMARK  9 active torsions:
REMARK  status: ('A' for Active; 'I' for Inactive)
REMARK    1  A    between atoms: C_4  and  S_31 
REMARK    2  A    between atoms: C_5  and  C_7 
REMARK    3  A    between atoms: C_7  and  N_8 
REMARK    4  A    between atoms: N_8  and  C_9 
REMARK    5  A    between atoms: C_9  and  C_10 
REMARK    6  A    between atoms: C_10  and  C_11 
REMARK    7  A    between atoms: N_14  and  C_17 
REMARK    8  A    between atoms: S_31  and  C_38 
REMARK    9  A    between atoms: C_32  and  C_38 
ROOT
HETATM    1  C           1     172.310 188.513 275.181  0.00  0.00    -0.008 A 
HETATM    2  C           1     171.305 188.570 276.133  0.00  0.00     0.130 A 
HETATM    3  N           1     171.178 187.683 277.144  0.00  0.00    -0.253 NA
HETATM    4  C           1     172.099 186.697 277.204  0.00  0.00     0.101 A 
HETATM    5  C           1     173.138 186.557 276.299  0.00  0.00     0.006 A 
HETATM    6  C           1     173.243 187.485 275.268  0.00  0.00     0.025 A 
HETATM    7  C           1     172.381 189.423 274.203  0.00  0.00    -0.024 A 
HETATM    8  C           1     171.920 189.109 272.924  0.00  0.00     0.014 A 
HETATM    9  C           1     171.995 190.058 271.904  0.00  0.00     0.030 A 
HETATM   10  C           1     172.529 191.320 272.163  0.00  0.00     0.029 A 
HETATM   11  C           1     172.988 191.633 273.442  0.00  0.00     0.030 A 
HETATM   12  C           1     172.915 190.685 274.462  0.00  0.00     0.014 A 
HETATM   13  N           1     172.596 192.181 271.238  0.00  0.00    -0.390 N 
HETATM   14  C           1     173.159 193.511 271.511  0.00  0.00     0.149 C 
HETATM   15  C           1     172.111 191.850 269.890  0.00  0.00     0.149 C 
ENDROOT
BRANCH   5  16
HETATM   16  C           1     174.123 185.437 276.427  0.00  0.00     0.311 C 
BRANCH  16  17
HETATM   17  N           1     175.458 185.952 276.290  0.00  0.00     0.087 N 
HETATM   18  H           1     175.417 186.938 276.033  0.00  0.00     0.316 HD
BRANCH  17  19
HETATM   19  C           1     176.108 185.210 275.244  0.00  0.00     0.270 C 
BRANCH  19  20
HETATM   20  C           1     177.232 186.048 274.649  0.00  0.00     0.034 C 
BRANCH  20  21
HETATM   21  C           1     176.827 186.530 273.262  0.00  0.00    -0.010 C 
HETATM   22  C           1     175.989 185.452 272.582  0.00  0.00     0.035 C 
HETATM   23  C           1     175.394 185.958 271.270  0.00  0.00     0.273 C 
HETATM   24  N           1     174.616 187.181 271.471  0.00  0.00     0.093 N 
HETATM   25  C           1     175.434 188.247 272.053  0.00  0.00     0.273 C 
HETATM   26  C           1     176.030 187.824 273.394  0.00  0.00     0.035 C 
BRANCH  24  27
HETATM   27  C           1     174.206 187.611 270.161  0.00  0.00     0.223 C 
HETATM   28  C           1     174.852 188.941 269.800  0.00  0.00     0.036 C 
HETATM   29  C           1     174.979 188.933 268.277  0.00  0.00     0.002 C 
HETATM   30  C           1     174.660 187.508 267.827  0.00  0.00     0.002 C 
HETATM   31  C           1     174.726 186.667 269.092  0.00  0.00     0.036 C 
ENDBRANCH  24  27
ENDBRANCH  20  21
ENDBRANCH  19  20
ENDBRANCH  17  19
ENDBRANCH  16  17
ENDBRANCH   5  16
BRANCH   4  32
HETATM   32  S           1     171.966 185.483 278.547  0.00  0.00    -0.105 SA
BRANCH  32  33
HETATM   33  C           1     172.069 186.734 279.859  0.00  0.00     0.119 C 
BRANCH  33  34
HETATM   34  C           1     173.277 186.475 280.702  0.00  0.00    -0.049 A 
HETATM   35  C           1     174.504 187.041 280.354  0.00  0.00     0.008 A 
HETATM   36  C           1     175.631 186.800 281.139  0.00  0.00     0.001 A 
HETATM   37  C           1     175.532 185.993 282.273  0.00  0.00     0.000 A 
HETATM   38  C           1     174.305 185.428 282.621  0.00  0.00     0.001 A 
HETATM   39  C           1     173.179 185.669 281.835  0.00  0.00     0.008 A 
ENDBRANCH  33  34
ENDBRANCH  32  33
ENDBRANCH   4  32
TORSDOF 9
ENDMDL
MODEL 8
REMARK VINA RESULT:      -8.2     11.046     16.844
REMARK  9 active torsions:
REMARK  status: ('A' for Active; 'I' for Inactive)
REMARK    1  A    between atoms: C_4  and  S_31 
REMARK    2  A    between atoms: C_5  and  C_7 
REMARK    3  A    between atoms: C_7  and  N_8 
REMARK    4  A    between atoms: N_8  and  C_9 
REMARK    5  A    between atoms: C_9  and  C_10 
REMARK    6  A    between atoms: C_10  and  C_11 
REMARK    7  A    between atoms: N_14  and  C_17 
REMARK    8  A    between atoms: S_31  and  C_38 
REMARK    9  A    between atoms: C_32  and  C_38 
ROOT
HETATM    1  C           1     173.175 187.246 268.458  0.00  0.00    -0.008 A 
HETATM    2  C           1     174.305 188.045 268.528  0.00  0.00     0.130 A 
HETATM    3  N           1     174.964 188.316 269.676  0.00  0.00    -0.253 NA
HETATM    4  C           1     174.468 187.761 270.803  0.00  0.00     0.101 A 
HETATM    5  C           1     173.345 186.950 270.834  0.00  0.00     0.006 A 
HETATM    6  C           1     172.688 186.689 269.637  0.00  0.00     0.025 A 
HETATM    7  C           1     172.569 187.016 267.288  0.00  0.00    -0.024 A 
HETATM    8  C           1     171.410 187.717 266.955  0.00  0.00     0.014 A 
HETATM    9  C           1     170.777 187.477 265.735  0.00  0.00     0.030 A 
HETATM   10  C           1     171.303 186.536 264.849  0.00  0.00     0.029 A 
HETATM   11  C           1     172.462 185.836 265.183  0.00  0.00     0.030 A 
HETATM   12  C           1     173.095 186.076 266.403  0.00  0.00     0.014 A 
HETATM   13  N           1     170.729 186.319 263.742  0.00  0.00    -0.390 N 
HETATM   14  C           1     171.284 185.328 262.809  0.00  0.00     0.149 C 
HETATM   15  C           1     169.508 187.057 263.391  0.00  0.00     0.149 C 
ENDROOT
BRANCH   5  16
HETATM   16  C           1     172.852 186.370 272.123  0.00  0.00     0.311 C 
BRANCH  16  17
HETATM   17  N           1     172.427 185.014 271.907  0.00  0.00     0.087 N 
HETATM   18  H           1     171.929 184.679 272.732  0.00  0.00     0.316 HD
BRANCH  17  19
HETATM   19  C           1     173.604 184.214 271.699  0.00  0.00     0.270 C 
BRANCH  19  20
HETATM   20  C           1     173.328 183.175 270.620  0.00  0.00     0.034 C 
BRANCH  20  21
HETATM   21  C           1     173.985 183.609 269.316  0.00  0.00    -0.010 C 
HETATM   22  C           1     175.361 184.192 269.618  0.00  0.00     0.035 C 
HETATM   23  C           1     176.142 184.464 268.335  0.00  0.00     0.273 C 
HETATM   24  N           1     176.250 183.261 267.508  0.00  0.00     0.093 N 
HETATM   25  C           1     174.930 182.738 267.149  0.00  0.00     0.273 C 
HETATM   26  C           1     174.106 182.403 268.390  0.00  0.00     0.035 C 
BRANCH  24  27
HETATM   27  C           1     176.903 183.670 266.294  0.00  0.00     0.223 C 
HETATM   28  C           1     177.433 182.466 265.530  0.00  0.00     0.036 C 
HETATM   29  C           1     177.408 182.873 264.057  0.00  0.00     0.002 C 
HETATM   30  C           1     176.620 184.180 263.986  0.00  0.00     0.002 C 
HETATM   31  C           1     175.910 184.290 265.326  0.00  0.00     0.036 C 
ENDBRANCH  24  27
ENDBRANCH  20  21
ENDBRANCH  19  20
ENDBRANCH  17  19
ENDBRANCH  16  17
ENDBRANCH   5  16
BRANCH   4  32
HETATM   32  S           1     175.322 188.099 272.369  0.00  0.00    -0.105 SA
BRANCH  32  33
HETATM   33  C           1     176.267 186.549 272.335  0.00  0.00     0.119 C 
BRANCH  33  34
HETATM   34  C           1     176.542 186.101 273.736  0.00  0.00    -0.049 A 
HETATM   35  C           1     175.589 185.354 274.428  0.00  0.00     0.008 A 
HETATM   36  C           1     175.844 184.937 275.735  0.00  0.00     0.001 A 
HETATM   37  C           1     177.053 185.265 276.348  0.00  0.00     0.000 A 
HETATM   38  C           1     178.006 186.012 275.655  0.00  0.00     0.001 A 
HETATM   39  C           1     177.751 186.430 274.350  0.00  0.00     0.008 A 
ENDBRANCH  33  34
ENDBRANCH  32  33
ENDBRANCH   4  32
TORSDOF 9
ENDMDL
MODEL 9
REMARK VINA RESULT:      -8.2     10.214     17.328
REMARK  9 active torsions:
REMARK  status: ('A' for Active; 'I' for Inactive)
REMARK    1  A    between atoms: C_4  and  S_31 
REMARK    2  A    between atoms: C_5  and  C_7 
REMARK    3  A    between atoms: C_7  and  N_8 
REMARK    4  A    between atoms: N_8  and  C_9 
REMARK    5  A    between atoms: C_9  and  C_10 
REMARK    6  A    between atoms: C_10  and  C_11 
REMARK    7  A    between atoms: N_14  and  C_17 
REMARK    8  A    between atoms: S_31  and  C_38 
REMARK    9  A    between atoms: C_32  and  C_38 
ROOT
HETATM    1  C           1     175.273 184.196 270.807  0.00  0.00    -0.008 A 
HETATM    2  C           1     175.853 182.965 270.553  0.00  0.00     0.130 A 
HETATM    3  N           1     175.704 182.289 269.393  0.00  0.00    -0.253 NA
HETATM    4  C           1     174.939 182.875 268.446  0.00  0.00     0.101 A 
HETATM    5  C           1     174.318 184.103 268.606  0.00  0.00     0.006 A 
HETATM    6  C           1     174.490 184.774 269.812  0.00  0.00     0.025 A 
HETATM    7  C           1     175.460 184.815 271.978  0.00  0.00    -0.024 A 
HETATM    8  C           1     174.466 184.772 272.956  0.00  0.00     0.014 A 
HETATM    9  C           1     174.661 185.417 274.177  0.00  0.00     0.030 A 
HETATM   10  C           1     175.850 186.104 274.421  0.00  0.00     0.029 A 
HETATM   11  C           1     176.844 186.146 273.444  0.00  0.00     0.030 A 
HETATM   12  C           1     176.649 185.502 272.222  0.00  0.00     0.014 A 
HETATM   13  N           1     176.027 186.689 275.530  0.00  0.00    -0.390 N 
HETATM   14  C           1     177.280 187.413 275.787  0.00  0.00     0.149 C 
HETATM   15  C           1     174.979 186.644 276.559  0.00  0.00     0.149 C 
ENDROOT
BRANCH   5  16
HETATM   16  C           1     173.484 184.691 267.512  0.00  0.00     0.311 C 
BRANCH  16  17
HETATM   17  N           1     173.031 185.998 267.903  0.00  0.00     0.087 N 
HETATM   18  H           1     172.013 186.027 267.875  0.00  0.00     0.316 HD
BRANCH  17  19
HETATM   19  C           1     173.565 186.945 266.960  0.00  0.00     0.270 C 
BRANCH  19  20
HETATM   20  C           1     172.637 188.150 266.870  0.00  0.00     0.034 C 
BRANCH  20  21
HETATM   21  C           1     173.097 189.221 267.850  0.00  0.00    -0.010 C 
HETATM   22  C           1     172.246 189.143 269.113  0.00  0.00     0.035 C 
HETATM   23  C           1     172.789 190.062 270.205  0.00  0.00     0.273 C 
HETATM   24  N           1     174.193 189.775 270.498  0.00  0.00     0.093 N 
HETATM   25  C           1     175.030 189.923 269.306  0.00  0.00     0.273 C 
HETATM   26  C           1     174.569 188.998 268.181  0.00  0.00     0.035 C 
BRANCH  24  27
HETATM   27  C           1     174.612 190.768 271.451  0.00  0.00     0.223 C 
HETATM   28  C           1     175.221 191.972 270.749  0.00  0.00     0.036 C 
HETATM   29  C           1     174.943 193.163 271.664  0.00  0.00     0.002 C 
HETATM   30  C           1     173.958 192.670 272.723  0.00  0.00     0.002 C 
HETATM   31  C           1     173.418 191.355 272.182  0.00  0.00     0.036 C 
ENDBRANCH  24  27
ENDBRANCH  20  21
ENDBRANCH  19  20
ENDBRANCH  17  19
ENDBRANCH  16  17
ENDBRANCH   5  16
BRANCH   4  32
HETATM   32  S           1     174.712 182.002 266.870  0.00  0.00    -0.105 SA
BRANCH  32  33
HETATM   33  C           1     176.492 181.791 266.584  0.00  0.00     0.119 C 
BRANCH  33  34
HETATM   34  C           1     176.859 182.389 265.261  0.00  0.00    -0.049 A 
HETATM   35  C           1     176.281 183.592 264.856  0.00  0.00     0.008 A 
HETATM   36  C           1     176.621 184.149 263.623  0.00  0.00     0.001 A 
HETATM   37  C           1     177.541 183.504 262.797  0.00  0.00     0.000 A 
HETATM   38  C           1     178.119 182.301 263.202  0.00  0.00     0.001 A 
HETATM   39  C           1     177.778 181.744 264.434  0.00  0.00     0.008 A 
ENDBRANCH  33  34
ENDBRANCH  32  33
ENDBRANCH   4  32
TORSDOF 9
ENDMDL
