MODEL 1
REMARK VINA RESULT:      -7.7      0.000      0.000
REMARK  9 active torsions:
REMARK  status: ('A' for Active; 'I' for Inactive)
REMARK    1  A    between atoms: C_5  and  S_20 
REMARK    2  A    between atoms: C_6  and  C_8 
REMARK    3  A    between atoms: C_8  and  N_9 
REMARK    4  A    between atoms: N_9  and  C_10 
REMARK    5  A    between atoms: C_10  and  C_11 
REMARK    6  A    between atoms: C_11  and  C_12 
REMARK    7  A    between atoms: N_15  and  C_18 
REMARK    8  A    between atoms: S_20  and  C_27 
REMARK    9  A    between atoms: C_21  and  C_27 
ROOT
HETATM    1  C           1     171.754 188.124 284.535  0.00  0.00     0.018 A 
HETATM    2  C           1     172.245 188.816 283.440  0.00  0.00     0.089 A 
HETATM    3  N           1     173.229 188.354 282.638  0.00  0.00    -0.360 N 
ATOM      4  HN          1     173.568 188.891 281.841  1.00  0.00     0.166 HD
HETATM    5  C           1     173.743 187.143 282.947  0.00  0.00     0.077 A 
HETATM    6  C           1     173.317 186.377 284.020  0.00  0.00     0.003 A 
HETATM    7  C           1     172.303 186.880 284.827  0.00  0.00     0.013 A 
ENDROOT
BRANCH   6   8
HETATM    8  C           1     173.934 185.042 284.303  0.00  0.00     0.307 C 
BRANCH   8   9
HETATM    9  N           1     174.986 185.194 285.271  0.00  0.00     0.087 N 
HETATM   10  H           1     175.794 184.642 284.984  0.00  0.00     0.316 HD
BRANCH   9  11
HETATM   11  C           1     174.495 184.706 286.531  0.00  0.00     0.270 C 
BRANCH  11  12
HETATM   12  C           1     174.825 185.707 287.629  0.00  0.00     0.034 C 
BRANCH  12  13
HETATM   13  C           1     173.616 185.883 288.539  0.00  0.00    -0.010 C 
HETATM   14  C           1     174.059 185.746 289.993  0.00  0.00     0.035 C 
HETATM   15  C           1     172.926 186.105 290.952  0.00  0.00     0.272 C 
HETATM   16  N           1     172.402 187.446 290.685  0.00  0.00     0.088 N 
HETATM   17  C           1     171.905 187.562 289.313  0.00  0.00     0.272 C 
HETATM   18  C           1     173.000 187.256 288.294  0.00  0.00     0.035 C 
BRANCH  16  19
HETATM   19  C           1     171.284 187.618 291.572  0.00  0.00     0.268 C 
HETATM   20  C           1     171.720 187.319 293.002  0.00  0.00     0.037 C 
ENDBRANCH  16  19
ENDBRANCH  12  13
ENDBRANCH  11  12
ENDBRANCH   9  11
ENDBRANCH   8   9
ENDBRANCH   6   8
BRANCH   5  21
HETATM   21  S           1     175.067 186.483 281.896  0.00  0.00    -0.107 SA
BRANCH  21  22
HETATM   22  C           1     174.712 187.612 280.521  0.00  0.00     0.122 C 
BRANCH  22  23
HETATM   23  C           1     174.071 186.852 279.402  0.00  0.00    -0.049 A 
HETATM   24  C           1     172.881 186.159 279.622  0.00  0.00     0.008 A 
HETATM   25  C           1     172.283 185.450 278.581  0.00  0.00     0.001 A 
HETATM   26  C           1     172.876 185.433 277.318  0.00  0.00     0.000 A 
HETATM   27  C           1     174.066 186.126 277.097  0.00  0.00     0.001 A 
HETATM   28  C           1     174.664 186.835 278.139  0.00  0.00     0.008 A 
ENDBRANCH  22  23
ENDBRANCH  21  22
ENDBRANCH   5  21
TORSDOF 9
ENDMDL
MODEL 2
REMARK VINA RESULT:      -7.5      2.266      3.985
REMARK  9 active torsions:
REMARK  status: ('A' for Active; 'I' for Inactive)
REMARK    1  A    between atoms: C_5  and  S_20 
REMARK    2  A    between atoms: C_6  and  C_8 
REMARK    3  A    between atoms: C_8  and  N_9 
REMARK    4  A    between atoms: N_9  and  C_10 
REMARK    5  A    between atoms: C_10  and  C_11 
REMARK    6  A    between atoms: C_11  and  C_12 
REMARK    7  A    between atoms: N_15  and  C_18 
REMARK    8  A    between atoms: S_20  and  C_27 
REMARK    9  A    between atoms: C_21  and  C_27 
ROOT
HETATM    1  C           1     172.167 189.631 281.362  0.00  0.00     0.018 A 
HETATM    2  C           1     171.236 189.339 280.378  0.00  0.00     0.089 A 
HETATM    3  N           1     171.279 188.229 279.609  0.00  0.00    -0.360 N 
ATOM      4  HN          1     170.577 188.046 278.893  1.00  0.00     0.166 HD
HETATM    5  C           1     172.299 187.373 279.837  0.00  0.00     0.077 A 
HETATM    6  C           1     173.276 187.578 280.797  0.00  0.00     0.003 A 
HETATM    7  C           1     173.206 188.730 281.573  0.00  0.00     0.013 A 
ENDROOT
BRANCH   6   8
HETATM    8  C           1     174.379 186.585 280.995  0.00  0.00     0.307 C 
BRANCH   8   9
HETATM    9  N           1     175.258 187.044 282.036  0.00  0.00     0.087 N 
HETATM   10  H           1     175.932 187.703 281.645  0.00  0.00     0.316 HD
BRANCH   9  11
HETATM   11  C           1     175.954 185.899 282.557  0.00  0.00     0.270 C 
BRANCH  11  12
HETATM   12  C           1     174.953 184.934 283.177  0.00  0.00     0.034 C 
BRANCH  12  13
HETATM   13  C           1     174.420 185.518 284.479  0.00  0.00    -0.010 C 
HETATM   14  C           1     172.897 185.415 284.488  0.00  0.00     0.035 C 
HETATM   15  C           1     172.324 185.808 285.848  0.00  0.00     0.272 C 
HETATM   16  N           1     172.913 185.014 286.928  0.00  0.00     0.088 N 
HETATM   17  C           1     174.368 185.168 286.973  0.00  0.00     0.272 C 
HETATM   18  C           1     175.016 184.752 285.655  0.00  0.00     0.035 C 
BRANCH  16  19
HETATM   19  C           1     172.377 185.548 288.150  0.00  0.00     0.268 C 
HETATM   20  C           1     173.503 185.735 289.159  0.00  0.00     0.037 C 
ENDBRANCH  16  19
ENDBRANCH  12  13
ENDBRANCH  11  12
ENDBRANCH   9  11
ENDBRANCH   8   9
ENDBRANCH   6   8
BRANCH   5  21
HETATM   21  S           1     172.394 185.868 278.828  0.00  0.00    -0.107 SA
BRANCH  21  22
HETATM   22  C           1     172.794 186.763 277.301  0.00  0.00     0.122 C 
BRANCH  22  23
HETATM   23  C           1     174.124 186.309 276.788  0.00  0.00    -0.049 A 
HETATM   24  C           1     175.297 186.814 277.350  0.00  0.00     0.008 A 
HETATM   25  C           1     176.537 186.391 276.872  0.00  0.00     0.001 A 
HETATM   26  C           1     176.605 185.464 275.832  0.00  0.00     0.000 A 
HETATM   27  C           1     175.432 184.959 275.270  0.00  0.00     0.001 A 
HETATM   28  C           1     174.192 185.382 275.748  0.00  0.00     0.008 A 
ENDBRANCH  22  23
ENDBRANCH  21  22
ENDBRANCH   5  21
TORSDOF 9
ENDMDL
MODEL 3
REMARK VINA RESULT:      -7.4      2.835      9.813
REMARK  9 active torsions:
REMARK  status: ('A' for Active; 'I' for Inactive)
REMARK    1  A    between atoms: C_5  and  S_20 
REMARK    2  A    between atoms: C_6  and  C_8 
REMARK    3  A    between atoms: C_8  and  N_9 
REMARK    4  A    between atoms: N_9  and  C_10 
REMARK    5  A    between atoms: C_10  and  C_11 
REMARK    6  A    between atoms: C_11  and  C_12 
REMARK    7  A    between atoms: N_15  and  C_18 
REMARK    8  A    between atoms: S_20  and  C_27 
REMARK    9  A    between atoms: C_21  and  C_27 
ROOT
HETATM    1  C           1     172.776 189.550 281.518  0.00  0.00     0.018 A 
HETATM    2  C           1     173.659 189.371 282.570  0.00  0.00     0.089 A 
HETATM    3  N           1     174.198 188.178 282.905  0.00  0.00    -0.360 N 
ATOM      4  HN          1     174.845 188.083 283.687  1.00  0.00     0.166 HD
HETATM    5  C           1     173.837 187.118 282.150  0.00  0.00     0.077 A 
HETATM    6  C           1     172.963 187.197 281.078  0.00  0.00     0.003 A 
HETATM    7  C           1     172.424 188.439 280.759  0.00  0.00     0.013 A 
ENDROOT
BRANCH   6   8
HETATM    8  C           1     172.607 185.977 280.285  0.00  0.00     0.307 C 
BRANCH   8   9
HETATM    9  N           1     171.645 186.326 279.275  0.00  0.00     0.087 N 
HETATM   10  H           1     170.706 186.285 279.671  0.00  0.00     0.316 HD
BRANCH   9  11
HETATM   11  C           1     171.759 185.364 278.213  0.00  0.00     0.270 C 
BRANCH  11  12
HETATM   12  C           1     172.343 186.036 276.977  0.00  0.00     0.034 C 
BRANCH  12  13
HETATM   13  C           1     173.823 185.697 276.864  0.00  0.00    -0.010 C 
HETATM   14  C           1     174.146 185.338 275.416  0.00  0.00     0.035 C 
HETATM   15  C           1     175.650 185.177 275.207  0.00  0.00     0.272 C 
HETATM   16  N           1     176.380 186.375 275.629  0.00  0.00     0.088 N 
HETATM   17  C           1     176.136 186.682 277.039  0.00  0.00     0.272 C 
HETATM   18  C           1     174.649 186.897 277.315  0.00  0.00     0.035 C 
BRANCH  16  19
HETATM   19  C           1     177.775 186.059 275.484  0.00  0.00     0.268 C 
HETATM   20  C           1     178.265 185.340 276.735  0.00  0.00     0.037 C 
ENDBRANCH  16  19
ENDBRANCH  12  13
ENDBRANCH  11  12
ENDBRANCH   9  11
ENDBRANCH   8   9
ENDBRANCH   6   8
BRANCH   5  21
HETATM   21  S           1     174.539 185.495 282.563  0.00  0.00    -0.107 SA
BRANCH  21  22
HETATM   22  C           1     173.147 185.023 283.627  0.00  0.00     0.122 C 
BRANCH  22  23
HETATM   23  C           1     173.552 185.144 285.063  0.00  0.00    -0.049 A 
HETATM   24  C           1     172.577 185.236 286.057  0.00  0.00     0.008 A 
HETATM   25  C           1     172.953 185.350 287.395  0.00  0.00     0.001 A 
HETATM   26  C           1     174.304 185.372 287.740  0.00  0.00     0.000 A 
HETATM   27  C           1     175.279 185.279 286.747  0.00  0.00     0.001 A 
HETATM   28  C           1     174.903 185.166 285.408  0.00  0.00     0.008 A 
ENDBRANCH  22  23
ENDBRANCH  21  22
ENDBRANCH   5  21
TORSDOF 9
ENDMDL
MODEL 4
REMARK VINA RESULT:      -7.3      4.824      8.844
REMARK  9 active torsions:
REMARK  status: ('A' for Active; 'I' for Inactive)
REMARK    1  A    between atoms: C_5  and  S_20 
REMARK    2  A    between atoms: C_6  and  C_8 
REMARK    3  A    between atoms: C_8  and  N_9 
REMARK    4  A    between atoms: N_9  and  C_10 
REMARK    5  A    between atoms: C_10  and  C_11 
REMARK    6  A    between atoms: C_11  and  C_12 
REMARK    7  A    between atoms: N_15  and  C_18 
REMARK    8  A    between atoms: S_20  and  C_27 
REMARK    9  A    between atoms: C_21  and  C_27 
ROOT
HETATM    1  C           1     177.709 185.619 275.911  0.00  0.00     0.018 A 
HETATM    2  C           1     178.073 186.501 274.906  0.00  0.00     0.089 A 
HETATM    3  N           1     177.186 187.170 274.137  0.00  0.00    -0.360 N 
ATOM      4  HN          1     177.490 187.812 273.404  1.00  0.00     0.166 HD
HETATM    5  C           1     175.878 186.946 274.386  0.00  0.00     0.077 A 
HETATM    6  C           1     175.417 186.085 275.368  0.00  0.00     0.003 A 
HETATM    7  C           1     176.354 185.410 276.144  0.00  0.00     0.013 A 
ENDROOT
BRANCH   6   8
HETATM    8  C           1     173.950 185.885 275.589  0.00  0.00     0.307 C 
BRANCH   8   9
HETATM    9  N           1     173.735 185.293 276.881  0.00  0.00     0.087 N 
HETATM   10  H           1     173.662 184.280 276.783  0.00  0.00     0.316 HD
BRANCH   9  11
HETATM   11  C           1     172.499 185.813 277.400  0.00  0.00     0.270 C 
BRANCH  11  12
HETATM   12  C           1     172.793 186.944 278.376  0.00  0.00     0.034 C 
BRANCH  12  13
HETATM   13  C           1     173.466 186.381 279.621  0.00  0.00    -0.010 C 
HETATM   14  C           1     174.673 187.247 279.973  0.00  0.00     0.035 C 
HETATM   15  C           1     175.270 186.844 281.320  0.00  0.00     0.272 C 
HETATM   16  N           1     174.265 186.881 282.384  0.00  0.00     0.088 N 
HETATM   17  C           1     173.139 185.993 282.089  0.00  0.00     0.272 C 
HETATM   18  C           1     172.465 186.366 280.770  0.00  0.00     0.035 C 
BRANCH  16  19
HETATM   19  C           1     174.919 186.383 283.564  0.00  0.00     0.268 C 
HETATM   20  C           1     174.630 184.894 283.713  0.00  0.00     0.037 C 
ENDBRANCH  16  19
ENDBRANCH  12  13
ENDBRANCH  11  12
ENDBRANCH   9  11
ENDBRANCH   8   9
ENDBRANCH   6   8
BRANCH   5  21
HETATM   21  S           1     174.652 187.826 273.377  0.00  0.00    -0.107 SA
BRANCH  21  22
HETATM   22  C           1     175.349 187.252 271.803  0.00  0.00     0.122 C 
BRANCH  22  23
HETATM   23  C           1     175.071 185.790 271.636  0.00  0.00    -0.049 A 
HETATM   24  C           1     176.096 184.925 271.254  0.00  0.00     0.008 A 
HETATM   25  C           1     175.838 183.563 271.098  0.00  0.00     0.001 A 
HETATM   26  C           1     174.555 183.067 271.323  0.00  0.00     0.000 A 
HETATM   27  C           1     173.529 183.932 271.706  0.00  0.00     0.001 A 
HETATM   28  C           1     173.787 185.293 271.862  0.00  0.00     0.008 A 
ENDBRANCH  22  23
ENDBRANCH  21  22
ENDBRANCH   5  21
TORSDOF 9
ENDMDL
MODEL 5
REMARK VINA RESULT:      -7.2      1.932      9.719
REMARK  9 active torsions:
REMARK  status: ('A' for Active; 'I' for Inactive)
REMARK    1  A    between atoms: C_5  and  S_20 
REMARK    2  A    between atoms: C_6  and  C_8 
REMARK    3  A    between atoms: C_8  and  N_9 
REMARK    4  A    between atoms: N_9  and  C_10 
REMARK    5  A    between atoms: C_10  and  C_11 
REMARK    6  A    between atoms: C_11  and  C_12 
REMARK    7  A    between atoms: N_15  and  C_18 
REMARK    8  A    between atoms: S_20  and  C_27 
REMARK    9  A    between atoms: C_21  and  C_27 
ROOT
HETATM    1  C           1     174.953 184.654 284.933  0.00  0.00     0.018 A 
HETATM    2  C           1     175.096 184.562 286.308  0.00  0.00     0.089 A 
HETATM    3  N           1     174.457 185.367 287.185  0.00  0.00    -0.360 N 
ATOM      4  HN          1     174.587 185.272 288.192  1.00  0.00     0.166 HD
HETATM    5  C           1     173.638 186.305 286.661  0.00  0.00     0.077 A 
HETATM    6  C           1     173.430 186.473 285.302  0.00  0.00     0.003 A 
HETATM    7  C           1     174.102 185.629 284.423  0.00  0.00     0.013 A 
ENDROOT
BRANCH   6   8
HETATM    8  C           1     172.506 187.536 284.791  0.00  0.00     0.307 C 
BRANCH   8   9
HETATM    9  N           1     173.268 188.700 284.430  0.00  0.00     0.087 N 
HETATM   10  H           1     173.005 189.478 285.035  0.00  0.00     0.316 HD
BRANCH   9  11
HETATM   11  C           1     172.949 189.026 283.067  0.00  0.00     0.270 C 
BRANCH  11  12
HETATM   12  C           1     174.101 188.610 282.162  0.00  0.00     0.034 C 
BRANCH  12  13
HETATM   13  C           1     173.550 188.093 280.839  0.00  0.00    -0.010 C 
HETATM   14  C           1     174.605 187.223 280.162  0.00  0.00     0.035 C 
HETATM   15  C           1     174.037 186.523 278.929  0.00  0.00     0.272 C 
HETATM   16  N           1     172.842 185.743 279.259  0.00  0.00     0.088 N 
HETATM   17  C           1     171.796 186.586 279.839  0.00  0.00     0.272 C 
HETATM   18  C           1     172.282 187.288 281.105  0.00  0.00     0.035 C 
BRANCH  16  19
HETATM   19  C           1     172.349 185.228 278.010  0.00  0.00     0.268 C 
HETATM   20  C           1     173.144 185.835 276.861  0.00  0.00     0.037 C 
ENDBRANCH  16  19
ENDBRANCH  12  13
ENDBRANCH  11  12
ENDBRANCH   9  11
ENDBRANCH   8   9
ENDBRANCH   6   8
BRANCH   5  21
HETATM   21  S           1     172.759 187.407 287.803  0.00  0.00    -0.107 SA
BRANCH  21  22
HETATM   22  C           1     172.012 186.047 288.744  0.00  0.00     0.122 C 
BRANCH  22  23
HETATM   23  C           1     171.937 186.421 290.191  0.00  0.00    -0.049 A 
HETATM   24  C           1     172.243 185.477 291.172  0.00  0.00     0.008 A 
HETATM   25  C           1     172.172 185.825 292.520  0.00  0.00     0.001 A 
HETATM   26  C           1     171.796 187.117 292.889  0.00  0.00     0.000 A 
HETATM   27  C           1     171.490 188.061 291.908  0.00  0.00     0.001 A 
HETATM   28  C           1     171.560 187.713 290.560  0.00  0.00     0.008 A 
ENDBRANCH  22  23
ENDBRANCH  21  22
ENDBRANCH   5  21
TORSDOF 9
ENDMDL
MODEL 6
REMARK VINA RESULT:      -7.2      2.928      5.306
REMARK  9 active torsions:
REMARK  status: ('A' for Active; 'I' for Inactive)
REMARK    1  A    between atoms: C_5  and  S_20 
REMARK    2  A    between atoms: C_6  and  C_8 
REMARK    3  A    between atoms: C_8  and  N_9 
REMARK    4  A    between atoms: N_9  and  C_10 
REMARK    5  A    between atoms: C_10  and  C_11 
REMARK    6  A    between atoms: C_11  and  C_12 
REMARK    7  A    between atoms: N_15  and  C_18 
REMARK    8  A    between atoms: S_20  and  C_27 
REMARK    9  A    between atoms: C_21  and  C_27 
ROOT
HETATM    1  C           1     171.328 186.661 279.245  0.00  0.00     0.018 A 
HETATM    2  C           1     171.418 186.507 277.871  0.00  0.00     0.089 A 
HETATM    3  N           1     172.585 186.518 277.189  0.00  0.00    -0.360 N 
ATOM      4  HN          1     172.614 186.403 276.176  1.00  0.00     0.166 HD
HETATM    5  C           1     173.710 186.689 277.916  0.00  0.00     0.077 A 
HETATM    6  C           1     173.720 186.850 279.292  0.00  0.00     0.003 A 
HETATM    7  C           1     172.504 186.835 279.966  0.00  0.00     0.013 A 
ENDROOT
BRANCH   6   8
HETATM    8  C           1     175.008 187.037 280.034  0.00  0.00     0.307 C 
BRANCH   8   9
HETATM    9  N           1     174.746 187.073 281.447  0.00  0.00     0.087 N 
HETATM   10  H           1     174.848 188.030 281.786  0.00  0.00     0.316 HD
BRANCH   9  11
HETATM   11  C           1     175.717 186.231 282.093  0.00  0.00     0.270 C 
BRANCH  11  12
HETATM   12  C           1     175.010 185.060 282.761  0.00  0.00     0.034 C 
BRANCH  12  13
HETATM   13  C           1     174.370 185.525 284.062  0.00  0.00    -0.010 C 
HETATM   14  C           1     172.868 185.263 284.004  0.00  0.00     0.035 C 
HETATM   15  C           1     172.206 185.532 285.354  0.00  0.00     0.272 C 
HETATM   16  N           1     172.836 184.754 286.423  0.00  0.00     0.088 N 
HETATM   17  C           1     174.264 185.058 286.536  0.00  0.00     0.272 C 
HETATM   18  C           1     175.000 184.773 285.229  0.00  0.00     0.035 C 
BRANCH  16  19
HETATM   19  C           1     172.202 185.173 287.644  0.00  0.00     0.268 C 
HETATM   20  C           1     170.716 184.840 287.584  0.00  0.00     0.037 C 
ENDBRANCH  16  19
ENDBRANCH  12  13
ENDBRANCH  11  12
ENDBRANCH   9  11
ENDBRANCH   8   9
ENDBRANCH   6   8
BRANCH   5  21
HETATM   21  S           1     175.299 186.709 277.040  0.00  0.00    -0.107 SA
BRANCH  21  22
HETATM   22  C           1     174.977 185.157 276.158  0.00  0.00     0.122 C 
BRANCH  22  23
HETATM   23  C           1     175.425 185.288 274.735  0.00  0.00    -0.049 A 
HETATM   24  C           1     176.611 185.960 274.437  0.00  0.00     0.008 A 
HETATM   25  C           1     177.029 186.083 273.112  0.00  0.00     0.001 A 
HETATM   26  C           1     176.261 185.534 272.085  0.00  0.00     0.000 A 
HETATM   27  C           1     175.075 184.862 272.384  0.00  0.00     0.001 A 
HETATM   28  C           1     174.657 184.739 273.708  0.00  0.00     0.008 A 
ENDBRANCH  22  23
ENDBRANCH  21  22
ENDBRANCH   5  21
TORSDOF 9
ENDMDL
MODEL 7
REMARK VINA RESULT:      -7.0      1.938     10.011
REMARK  9 active torsions:
REMARK  status: ('A' for Active; 'I' for Inactive)
REMARK    1  A    between atoms: C_5  and  S_20 
REMARK    2  A    between atoms: C_6  and  C_8 
REMARK    3  A    between atoms: C_8  and  N_9 
REMARK    4  A    between atoms: N_9  and  C_10 
REMARK    5  A    between atoms: C_10  and  C_11 
REMARK    6  A    between atoms: C_11  and  C_12 
REMARK    7  A    between atoms: N_15  and  C_18 
REMARK    8  A    between atoms: S_20  and  C_27 
REMARK    9  A    between atoms: C_21  and  C_27 
ROOT
HETATM    1  C           1     174.988 184.301 285.095  0.00  0.00     0.018 A 
HETATM    2  C           1     174.769 184.347 286.462  0.00  0.00     0.089 A 
HETATM    3  N           1     174.073 185.327 287.079  0.00  0.00    -0.360 N 
ATOM      4  HN          1     173.932 185.330 288.089  1.00  0.00     0.166 HD
HETATM    5  C           1     173.574 186.303 286.291  0.00  0.00     0.077 A 
HETATM    6  C           1     173.740 186.344 284.916  0.00  0.00     0.003 A 
HETATM    7  C           1     174.461 185.321 284.310  0.00  0.00     0.013 A 
ENDROOT
BRANCH   6   8
HETATM    8  C           1     173.158 187.460 284.104  0.00  0.00     0.307 C 
BRANCH   8   9
HETATM    9  N           1     174.042 187.771 283.014  0.00  0.00     0.087 N 
HETATM   10  H           1     174.487 188.673 283.186  0.00  0.00     0.316 HD
BRANCH   9  11
HETATM   11  C           1     173.248 187.850 281.817  0.00  0.00     0.270 C 
BRANCH  11  12
HETATM   12  C           1     172.677 186.476 281.495  0.00  0.00     0.034 C 
BRANCH  12  13
HETATM   13  C           1     173.137 186.045 280.108  0.00  0.00    -0.010 C 
HETATM   14  C           1     171.928 185.961 279.182  0.00  0.00     0.035 C 
HETATM   15  C           1     172.354 185.721 277.735  0.00  0.00     0.272 C 
HETATM   16  N           1     173.297 186.744 277.279  0.00  0.00     0.088 N 
HETATM   17  C           1     174.496 186.779 278.117  0.00  0.00     0.272 C 
HETATM   18  C           1     174.148 187.056 279.578  0.00  0.00     0.035 C 
BRANCH  16  19
HETATM   19  C           1     173.699 186.349 275.956  0.00  0.00     0.268 C 
HETATM   20  C           1     174.820 185.322 276.051  0.00  0.00     0.037 C 
ENDBRANCH  16  19
ENDBRANCH  12  13
ENDBRANCH  11  12
ENDBRANCH   9  11
ENDBRANCH   8   9
ENDBRANCH   6   8
BRANCH   5  21
HETATM   21  S           1     172.631 187.640 287.078  0.00  0.00    -0.107 SA
BRANCH  21  22
HETATM   22  C           1     171.550 186.508 287.997  0.00  0.00     0.122 C 
BRANCH  22  23
HETATM   23  C           1     171.688 186.766 289.465  0.00  0.00    -0.049 A 
HETATM   24  C           1     171.153 187.927 290.022  0.00  0.00     0.008 A 
HETATM   25  C           1     171.281 188.168 291.390  0.00  0.00     0.001 A 
HETATM   26  C           1     171.946 187.248 292.200  0.00  0.00     0.000 A 
HETATM   27  C           1     172.481 186.086 291.643  0.00  0.00     0.001 A 
HETATM   28  C           1     172.353 185.846 290.275  0.00  0.00     0.008 A 
ENDBRANCH  22  23
ENDBRANCH  21  22
ENDBRANCH   5  21
TORSDOF 9
ENDMDL
MODEL 8
REMARK VINA RESULT:      -7.0      5.504      9.579
REMARK  9 active torsions:
REMARK  status: ('A' for Active; 'I' for Inactive)
REMARK    1  A    between atoms: C_5  and  S_20 
REMARK    2  A    between atoms: C_6  and  C_8 
REMARK    3  A    between atoms: C_8  and  N_9 
REMARK    4  A    between atoms: N_9  and  C_10 
REMARK    5  A    between atoms: C_10  and  C_11 
REMARK    6  A    between atoms: C_11  and  C_12 
REMARK    7  A    between atoms: N_15  and  C_18 
REMARK    8  A    between atoms: S_20  and  C_27 
REMARK    9  A    between atoms: C_21  and  C_27 
ROOT
HETATM    1  C           1     177.762 185.821 275.723  0.00  0.00     0.018 A 
HETATM    2  C           1     178.106 186.476 274.551  0.00  0.00     0.089 A 
HETATM    3  N           1     177.217 186.827 273.597  0.00  0.00    -0.360 N 
ATOM      4  HN          1     177.506 187.308 272.745  1.00  0.00     0.166 HD
HETATM    5  C           1     175.924 186.508 273.827  0.00  0.00     0.077 A 
HETATM    6  C           1     175.484 185.855 274.967  0.00  0.00     0.003 A 
HETATM    7  C           1     176.423 185.507 275.931  0.00  0.00     0.013 A 
ENDROOT
BRANCH   6   8
HETATM    8  C           1     174.033 185.532 275.155  0.00  0.00     0.307 C 
BRANCH   8   9
HETATM    9  N           1     173.756 185.370 276.557  0.00  0.00     0.087 N 
HETATM   10  H           1     172.960 184.743 276.675  0.00  0.00     0.316 HD
BRANCH   9  11
HETATM   11  C           1     173.430 186.664 277.091  0.00  0.00     0.270 C 
BRANCH  11  12
HETATM   12  C           1     172.440 186.507 278.237  0.00  0.00     0.034 C 
BRANCH  12  13
HETATM   13  C           1     173.194 186.203 279.524  0.00  0.00    -0.010 C 
HETATM   14  C           1     174.451 187.067 279.585  0.00  0.00     0.035 C 
HETATM   15  C           1     175.142 186.945 280.941  0.00  0.00     0.272 C 
HETATM   16  N           1     174.228 187.265 282.039  0.00  0.00     0.088 N 
HETATM   17  C           1     173.056 186.388 282.033  0.00  0.00     0.272 C 
HETATM   18  C           1     172.289 186.491 280.717  0.00  0.00     0.035 C 
BRANCH  16  19
HETATM   19  C           1     174.959 187.010 283.251  0.00  0.00     0.268 C 
HETATM   20  C           1     175.461 185.571 283.248  0.00  0.00     0.037 C 
ENDBRANCH  16  19
ENDBRANCH  12  13
ENDBRANCH  11  12
ENDBRANCH   9  11
ENDBRANCH   8   9
ENDBRANCH   6   8
BRANCH   5  21
HETATM   21  S           1     174.695 186.961 272.572  0.00  0.00    -0.107 SA
BRANCH  21  22
HETATM   22  C           1     175.640 188.392 271.980  0.00  0.00     0.122 C 
BRANCH  22  23
HETATM   23  C           1     175.271 188.682 270.558  0.00  0.00    -0.049 A 
HETATM   24  C           1     175.197 190.001 270.112  0.00  0.00     0.008 A 
HETATM   25  C           1     174.854 190.272 268.787  0.00  0.00     0.001 A 
HETATM   26  C           1     174.584 189.223 267.909  0.00  0.00     0.000 A 
HETATM   27  C           1     174.658 187.903 268.355  0.00  0.00     0.001 A 
HETATM   28  C           1     175.001 187.632 269.679  0.00  0.00     0.008 A 
ENDBRANCH  22  23
ENDBRANCH  21  22
ENDBRANCH   5  21
TORSDOF 9
ENDMDL
MODEL 9
REMARK VINA RESULT:      -6.9      2.816      5.159
REMARK  9 active torsions:
REMARK  status: ('A' for Active; 'I' for Inactive)
REMARK    1  A    between atoms: C_5  and  S_20 
REMARK    2  A    between atoms: C_6  and  C_8 
REMARK    3  A    between atoms: C_8  and  N_9 
REMARK    4  A    between atoms: N_9  and  C_10 
REMARK    5  A    between atoms: C_10  and  C_11 
REMARK    6  A    between atoms: C_11  and  C_12 
REMARK    7  A    between atoms: N_15  and  C_18 
REMARK    8  A    between atoms: S_20  and  C_27 
REMARK    9  A    between atoms: C_21  and  C_27 
ROOT
HETATM    1  C           1     170.085 188.137 278.699  0.00  0.00     0.018 A 
HETATM    2  C           1     169.980 187.631 277.414  0.00  0.00     0.089 A 
HETATM    3  N           1     170.927 186.865 276.828  0.00  0.00    -0.360 N 
ATOM      4  HN          1     170.818 186.510 275.879  1.00  0.00     0.166 HD
HETATM    5  C           1     172.027 186.593 277.565  0.00  0.00     0.077 A 
HETATM    6  C           1     172.221 187.052 278.857  0.00  0.00     0.003 A 
HETATM    7  C           1     171.229 187.839 279.433  0.00  0.00     0.013 A 
ENDROOT
BRANCH   6   8
HETATM    8  C           1     173.467 186.711 279.614  0.00  0.00     0.307 C 
BRANCH   8   9
HETATM    9  N           1     173.161 185.741 280.630  0.00  0.00     0.087 N 
HETATM   10  H           1     172.177 185.819 280.888  0.00  0.00     0.316 HD
BRANCH   9  11
HETATM   11  C           1     173.981 186.033 281.775  0.00  0.00     0.270 C 
BRANCH  11  12
HETATM   12  C           1     174.236 184.752 282.558  0.00  0.00     0.034 C 
BRANCH  12  13
HETATM   13  C           1     173.656 184.888 283.960  0.00  0.00    -0.010 C 
HETATM   14  C           1     174.771 184.699 284.984  0.00  0.00     0.035 C 
HETATM   15  C           1     174.285 185.015 286.397  0.00  0.00     0.272 C 
HETATM   16  N           1     173.718 186.363 286.479  0.00  0.00     0.088 N 
HETATM   17  C           1     172.596 186.528 285.553  0.00  0.00     0.272 C 
HETATM   18  C           1     173.020 186.266 284.109  0.00  0.00     0.035 C 
BRANCH  16  19
HETATM   19  C           1     173.205 186.496 287.815  0.00  0.00     0.268 C 
HETATM   20  C           1     174.221 185.940 288.806  0.00  0.00     0.037 C 
ENDBRANCH  16  19
ENDBRANCH  12  13
ENDBRANCH  11  12
ENDBRANCH   9  11
ENDBRANCH   8   9
ENDBRANCH   6   8
BRANCH   5  21
HETATM   21  S           1     173.324 185.566 276.818  0.00  0.00    -0.107 SA
BRANCH  21  22
HETATM   22  C           1     174.043 186.938 275.873  0.00  0.00     0.122 C 
BRANCH  22  23
HETATM   23  C           1     175.493 186.664 275.619  0.00  0.00    -0.049 A 
HETATM   24  C           1     175.979 186.642 274.311  0.00  0.00     0.008 A 
HETATM   25  C           1     177.329 186.387 274.073  0.00  0.00     0.001 A 
HETATM   26  C           1     178.193 186.153 275.142  0.00  0.00     0.000 A 
HETATM   27  C           1     177.707 186.175 276.450  0.00  0.00     0.001 A 
HETATM   28  C           1     176.357 186.431 276.688  0.00  0.00     0.008 A 
ENDBRANCH  22  23
ENDBRANCH  21  22
ENDBRANCH   5  21
TORSDOF 9
ENDMDL
