MODEL 1
REMARK VINA RESULT:      -7.9      0.000      0.000
REMARK  9 active torsions:
REMARK  status: ('A' for Active; 'I' for Inactive)
REMARK    1  A    between atoms: C_4  and  S_25 
REMARK    2  A    between atoms: C_5  and  C_7 
REMARK    3  A    between atoms: C_7  and  N_8 
REMARK    4  A    between atoms: N_8  and  C_9 
REMARK    5  A    between atoms: C_9  and  C_10 
REMARK    6  A    between atoms: C_10  and  C_11 
REMARK    7  A    between atoms: N_14  and  C_17 
REMARK    8  A    between atoms: S_25  and  C_32 
REMARK    9  A    between atoms: C_26  and  C_32 
ROOT
HETATM    1  C           1     175.374 185.452 272.274  0.00  0.00    -0.008 A 
HETATM    2  C           1     176.072 185.637 271.091  0.00  0.00     0.130 A 
HETATM    3  N           1     175.511 185.545 269.866  0.00  0.00    -0.253 NA
HETATM    4  C           1     174.192 185.255 269.824  0.00  0.00     0.101 A 
HETATM    5  C           1     173.411 185.054 270.952  0.00  0.00     0.006 A 
HETATM    6  C           1     174.017 185.155 272.199  0.00  0.00     0.025 A 
HETATM    7  C           1     175.988 185.557 273.457  0.00  0.00    -0.024 A 
HETATM    8  C           1     177.219 186.208 273.549  0.00  0.00     0.014 A 
HETATM    9  C           1     177.860 186.318 274.783  0.00  0.00     0.023 A 
HETATM   10  C           1     177.271 185.775 275.925  0.00  0.00     0.044 A 
HETATM   11  C           1     176.041 185.124 275.834  0.00  0.00     0.023 A 
HETATM   12  C           1     175.400 185.015 274.599  0.00  0.00     0.014 A 
HETATM   13  C           1     177.874 185.878 277.086  0.00  0.00     0.099 C 
HETATM   14  N           1     178.407 185.969 278.111  0.00  0.00    -0.191 NA
ENDROOT
BRANCH   5  15
HETATM   15  C           1     171.953 184.735 270.828  0.00  0.00     0.308 C 
BRANCH  15  16
HETATM   16  N           1     171.186 185.714 271.552  0.00  0.00     0.087 N 
HETATM   17  H           1     170.253 185.346 271.736  0.00  0.00     0.316 HD
BRANCH  16  18
HETATM   18  C           1     171.085 186.887 270.727  0.00  0.00     0.270 C 
BRANCH  18  19
HETATM   19  C           1     171.104 188.131 271.607  0.00  0.00     0.034 C 
BRANCH  19  20
HETATM   20  C           1     172.117 189.126 271.059  0.00  0.00    -0.010 C 
HETATM   21  C           1     171.615 190.544 271.313  0.00  0.00     0.035 C 
HETATM   22  C           1     172.680 191.580 270.959  0.00  0.00     0.272 C 
HETATM   23  N           1     173.931 191.329 271.676  0.00  0.00     0.088 N 
HETATM   24  C           1     174.461 189.998 271.377  0.00  0.00     0.272 C 
HETATM   25  C           1     173.461 188.903 271.747  0.00  0.00     0.035 C 
BRANCH  23  26
HETATM   26  C           1     174.873 192.295 271.180  0.00  0.00     0.268 C 
HETATM   27  C           1     176.061 191.574 270.557  0.00  0.00     0.037 C 
ENDBRANCH  23  26
ENDBRANCH  19  20
ENDBRANCH  18  19
ENDBRANCH  16  18
ENDBRANCH  15  16
ENDBRANCH   5  15
BRANCH   4  28
HETATM   28  S           1     173.397 185.122 268.198  0.00  0.00    -0.105 SA
BRANCH  28  29
HETATM   29  C           1     174.495 186.339 267.419  0.00  0.00     0.122 C 
BRANCH  29  30
HETATM   30  C           1     173.847 187.689 267.451  0.00  0.00    -0.049 A 
HETATM   31  C           1     174.599 188.815 267.783  0.00  0.00     0.008 A 
HETATM   32  C           1     173.994 190.073 267.813  0.00  0.00     0.001 A 
HETATM   33  C           1     172.638 190.202 267.511  0.00  0.00     0.000 A 
HETATM   34  C           1     171.888 189.075 267.179  0.00  0.00     0.001 A 
HETATM   35  C           1     172.492 187.817 267.149  0.00  0.00     0.008 A 
ENDBRANCH  29  30
ENDBRANCH  28  29
ENDBRANCH   4  28
TORSDOF 9
ENDMDL
MODEL 2
REMARK VINA RESULT:      -7.3      4.929      9.057
REMARK  9 active torsions:
REMARK  status: ('A' for Active; 'I' for Inactive)
REMARK    1  A    between atoms: C_4  and  S_25 
REMARK    2  A    between atoms: C_5  and  C_7 
REMARK    3  A    between atoms: C_7  and  N_8 
REMARK    4  A    between atoms: N_8  and  C_9 
REMARK    5  A    between atoms: C_9  and  C_10 
REMARK    6  A    between atoms: C_10  and  C_11 
REMARK    7  A    between atoms: N_14  and  C_17 
REMARK    8  A    between atoms: S_25  and  C_32 
REMARK    9  A    between atoms: C_26  and  C_32 
ROOT
HETATM    1  C           1     174.575 186.042 276.176  0.00  0.00    -0.008 A 
HETATM    2  C           1     175.347 186.843 277.003  0.00  0.00     0.130 A 
HETATM    3  N           1     174.997 187.177 278.265  0.00  0.00    -0.253 NA
HETATM    4  C           1     173.824 186.684 278.718  0.00  0.00     0.101 A 
HETATM    5  C           1     172.985 185.875 277.966  0.00  0.00     0.006 A 
HETATM    6  C           1     173.372 185.550 276.670  0.00  0.00     0.025 A 
HETATM    7  C           1     174.978 185.749 274.935  0.00  0.00    -0.024 A 
HETATM    8  C           1     176.315 185.917 274.577  0.00  0.00     0.014 A 
HETATM    9  C           1     176.735 185.611 273.282  0.00  0.00     0.023 A 
HETATM   10  C           1     175.817 185.138 272.345  0.00  0.00     0.044 A 
HETATM   11  C           1     174.479 184.970 272.702  0.00  0.00     0.023 A 
HETATM   12  C           1     174.059 185.275 273.998  0.00  0.00     0.014 A 
HETATM   13  C           1     176.212 184.850 271.127  0.00  0.00     0.099 C 
HETATM   14  N           1     176.561 184.597 270.052  0.00  0.00    -0.191 NA
ENDROOT
BRANCH   5  15
HETATM   15  C           1     171.698 185.366 278.535  0.00  0.00     0.308 C 
BRANCH  15  16
HETATM   16  N           1     170.623 185.655 277.624  0.00  0.00     0.087 N 
HETATM   17  H           1     170.938 185.501 276.666  0.00  0.00     0.316 HD
BRANCH  16  18
HETATM   18  C           1     170.265 187.037 277.794  0.00  0.00     0.270 C 
BRANCH  18  19
HETATM   19  C           1     169.788 187.606 276.464  0.00  0.00     0.034 C 
BRANCH  19  20
HETATM   20  C           1     170.903 187.493 275.434  0.00  0.00    -0.010 C 
HETATM   21  C           1     170.290 187.383 274.042  0.00  0.00     0.035 C 
HETATM   22  C           1     171.361 187.463 272.956  0.00  0.00     0.272 C 
HETATM   23  N           1     172.162 188.680 273.083  0.00  0.00     0.088 N 
HETATM   24  C           1     172.818 188.756 274.390  0.00  0.00     0.272 C 
HETATM   25  C           1     171.799 188.724 275.528  0.00  0.00     0.035 C 
BRANCH  23  26
HETATM   26  C           1     173.192 188.585 272.084  0.00  0.00     0.268 C 
HETATM   27  C           1     174.553 188.793 272.734  0.00  0.00     0.037 C 
ENDBRANCH  23  26
ENDBRANCH  19  20
ENDBRANCH  18  19
ENDBRANCH  16  18
ENDBRANCH  15  16
ENDBRANCH   5  15
BRANCH   4  28
HETATM   28  S           1     173.315 187.107 280.408  0.00  0.00    -0.105 SA
BRANCH  28  29
HETATM   29  C           1     174.644 186.145 281.185  0.00  0.00     0.122 C 
BRANCH  29  30
HETATM   30  C           1     174.247 185.784 282.583  0.00  0.00    -0.049 A 
HETATM   31  C           1     175.181 185.214 283.447  0.00  0.00     0.008 A 
HETATM   32  C           1     174.810 184.878 284.750  0.00  0.00     0.001 A 
HETATM   33  C           1     173.506 185.113 285.187  0.00  0.00     0.000 A 
HETATM   34  C           1     172.574 185.683 284.322  0.00  0.00     0.001 A 
HETATM   35  C           1     172.943 186.020 283.019  0.00  0.00     0.008 A 
ENDBRANCH  29  30
ENDBRANCH  28  29
ENDBRANCH   4  28
TORSDOF 9
ENDMDL
MODEL 3
REMARK VINA RESULT:      -7.2      2.077      3.482
REMARK  9 active torsions:
REMARK  status: ('A' for Active; 'I' for Inactive)
REMARK    1  A    between atoms: C_4  and  S_25 
REMARK    2  A    between atoms: C_5  and  C_7 
REMARK    3  A    between atoms: C_7  and  N_8 
REMARK    4  A    between atoms: N_8  and  C_9 
REMARK    5  A    between atoms: C_9  and  C_10 
REMARK    6  A    between atoms: C_10  and  C_11 
REMARK    7  A    between atoms: N_14  and  C_17 
REMARK    8  A    between atoms: S_25  and  C_32 
REMARK    9  A    between atoms: C_26  and  C_32 
ROOT
HETATM    1  C           1     175.201 185.490 272.282  0.00  0.00    -0.008 A 
HETATM    2  C           1     175.865 185.660 271.077  0.00  0.00     0.130 A 
HETATM    3  N           1     175.261 185.589 269.870  0.00  0.00    -0.253 NA
HETATM    4  C           1     173.934 185.337 269.871  0.00  0.00     0.101 A 
HETATM    5  C           1     173.185 185.153 271.024  0.00  0.00     0.006 A 
HETATM    6  C           1     173.835 185.232 272.251  0.00  0.00     0.025 A 
HETATM    7  C           1     175.858 185.573 273.444  0.00  0.00    -0.024 A 
HETATM    8  C           1     177.108 186.189 273.497  0.00  0.00     0.014 A 
HETATM    9  C           1     177.793 186.275 274.710  0.00  0.00     0.023 A 
HETATM   10  C           1     177.227 185.744 275.869  0.00  0.00     0.044 A 
HETATM   11  C           1     175.977 185.128 275.816  0.00  0.00     0.023 A 
HETATM   12  C           1     175.292 185.042 274.603  0.00  0.00     0.014 A 
HETATM   13  C           1     177.871 185.826 277.010  0.00  0.00     0.099 C 
HETATM   14  N           1     178.440 185.897 278.016  0.00  0.00    -0.191 NA
ENDROOT
BRANCH   5  15
HETATM   15  C           1     171.716 184.876 270.948  0.00  0.00     0.308 C 
BRANCH  15  16
HETATM   16  N           1     171.041 185.572 272.011  0.00  0.00     0.087 N 
HETATM   17  H           1     170.211 185.049 272.287  0.00  0.00     0.316 HD
BRANCH  16  18
HETATM   18  C           1     170.652 186.863 271.510  0.00  0.00     0.270 C 
BRANCH  18  19
HETATM   19  C           1     170.707 187.884 272.639  0.00  0.00     0.034 C 
BRANCH  19  20
HETATM   20  C           1     171.166 187.201 273.919  0.00  0.00    -0.010 C 
HETATM   21  C           1     172.439 187.877 274.418  0.00  0.00     0.035 C 
HETATM   22  C           1     172.835 187.362 275.801  0.00  0.00     0.272 C 
HETATM   23  N           1     171.744 187.519 276.763  0.00  0.00     0.088 N 
HETATM   24  C           1     170.541 186.808 276.329  0.00  0.00     0.272 C 
HETATM   25  C           1     170.060 187.304 274.966  0.00  0.00     0.035 C 
BRANCH  23  26
HETATM   26  C           1     172.199 186.905 277.982  0.00  0.00     0.268 C 
HETATM   27  C           1     171.707 185.464 278.039  0.00  0.00     0.037 C 
ENDBRANCH  23  26
ENDBRANCH  19  20
ENDBRANCH  18  19
ENDBRANCH  16  18
ENDBRANCH  15  16
ENDBRANCH   5  15
BRANCH   4  28
HETATM   28  S           1     173.082 185.232 268.273  0.00  0.00    -0.105 SA
BRANCH  28  29
HETATM   29  C           1     174.256 186.332 267.431  0.00  0.00     0.122 C 
BRANCH  29  30
HETATM   30  C           1     173.728 187.733 267.448  0.00  0.00    -0.049 A 
HETATM   31  C           1     172.445 188.000 266.971  0.00  0.00     0.008 A 
HETATM   32  C           1     171.953 189.306 266.986  0.00  0.00     0.001 A 
HETATM   33  C           1     172.745 190.343 267.478  0.00  0.00     0.000 A 
HETATM   34  C           1     174.028 190.075 267.955  0.00  0.00     0.001 A 
HETATM   35  C           1     174.520 188.770 267.940  0.00  0.00     0.008 A 
ENDBRANCH  29  30
ENDBRANCH  28  29
ENDBRANCH   4  28
TORSDOF 9
ENDMDL
MODEL 4
REMARK VINA RESULT:      -7.2      7.993     12.307
REMARK  9 active torsions:
REMARK  status: ('A' for Active; 'I' for Inactive)
REMARK    1  A    between atoms: C_4  and  S_25 
REMARK    2  A    between atoms: C_5  and  C_7 
REMARK    3  A    between atoms: C_7  and  N_8 
REMARK    4  A    between atoms: N_8  and  C_9 
REMARK    5  A    between atoms: C_9  and  C_10 
REMARK    6  A    between atoms: C_10  and  C_11 
REMARK    7  A    between atoms: N_14  and  C_17 
REMARK    8  A    between atoms: S_25  and  C_32 
REMARK    9  A    between atoms: C_26  and  C_32 
ROOT
HETATM    1  C           1     172.619 189.470 282.064  0.00  0.00    -0.008 A 
HETATM    2  C           1     173.463 189.385 283.161  0.00  0.00     0.130 A 
HETATM    3  N           1     174.316 188.359 283.374  0.00  0.00    -0.253 NA
HETATM    4  C           1     174.327 187.378 282.446  0.00  0.00     0.101 A 
HETATM    5  C           1     173.522 187.375 281.317  0.00  0.00     0.006 A 
HETATM    6  C           1     172.653 188.444 281.126  0.00  0.00     0.025 A 
HETATM    7  C           1     171.796 190.512 281.911  0.00  0.00    -0.024 A 
HETATM    8  C           1     172.023 191.690 282.623  0.00  0.00     0.014 A 
HETATM    9  C           1     171.163 192.778 282.464  0.00  0.00     0.023 A 
HETATM   10  C           1     170.077 192.687 281.593  0.00  0.00     0.044 A 
HETATM   11  C           1     169.851 191.509 280.881  0.00  0.00     0.023 A 
HETATM   12  C           1     170.710 190.421 281.040  0.00  0.00     0.014 A 
HETATM   13  C           1     169.269 193.710 281.443  0.00  0.00     0.099 C 
HETATM   14  N           1     168.556 194.613 281.311  0.00  0.00    -0.191 NA
ENDROOT
BRANCH   5  15
HETATM   15  C           1     173.588 186.251 280.331  0.00  0.00     0.308 C 
BRANCH  15  16
HETATM   16  N           1     172.295 186.068 279.725  0.00  0.00     0.087 N 
HETATM   17  H           1     171.657 185.654 280.403  0.00  0.00     0.316 HD
BRANCH  16  18
HETATM   18  C           1     172.458 185.175 278.610  0.00  0.00     0.270 C 
BRANCH  18  19
HETATM   19  C           1     172.540 185.983 277.321  0.00  0.00     0.034 C 
BRANCH  19  20
HETATM   20  C           1     173.882 185.728 276.647  0.00  0.00    -0.010 C 
HETATM   21  C           1     173.672 185.609 275.141  0.00  0.00     0.035 C 
HETATM   22  C           1     175.005 185.548 274.398  0.00  0.00     0.272 C 
HETATM   23  N           1     175.851 186.697 274.722  0.00  0.00     0.088 N 
HETATM   24  C           1     176.122 186.775 276.158  0.00  0.00     0.272 C 
HETATM   25  C           1     174.829 186.882 276.965  0.00  0.00     0.035 C 
BRANCH  23  26
HETATM   26  C           1     177.103 186.469 274.053  0.00  0.00     0.268 C 
HETATM   27  C           1     178.194 186.222 275.087  0.00  0.00     0.037 C 
ENDBRANCH  23  26
ENDBRANCH  19  20
ENDBRANCH  18  19
ENDBRANCH  16  18
ENDBRANCH  15  16
ENDBRANCH   5  15
BRANCH   4  28
HETATM   28  S           1     175.459 185.981 282.692  0.00  0.00    -0.105 SA
BRANCH  28  29
HETATM   29  C           1     174.142 184.837 283.195  0.00  0.00     0.122 C 
BRANCH  29  30
HETATM   30  C           1     173.851 185.020 284.652  0.00  0.00    -0.049 A 
HETATM   31  C           1     174.892 184.996 285.580  0.00  0.00     0.008 A 
HETATM   32  C           1     174.620 185.166 286.938  0.00  0.00     0.001 A 
HETATM   33  C           1     173.307 185.361 287.367  0.00  0.00     0.000 A 
HETATM   34  C           1     172.267 185.385 286.439  0.00  0.00     0.001 A 
HETATM   35  C           1     172.538 185.214 285.081  0.00  0.00     0.008 A 
ENDBRANCH  29  30
ENDBRANCH  28  29
ENDBRANCH   4  28
TORSDOF 9
ENDMDL
MODEL 5
REMARK VINA RESULT:      -7.1     12.376     16.234
REMARK  9 active torsions:
REMARK  status: ('A' for Active; 'I' for Inactive)
REMARK    1  A    between atoms: C_4  and  S_25 
REMARK    2  A    between atoms: C_5  and  C_7 
REMARK    3  A    between atoms: C_7  and  N_8 
REMARK    4  A    between atoms: N_8  and  C_9 
REMARK    5  A    between atoms: C_9  and  C_10 
REMARK    6  A    between atoms: C_10  and  C_11 
REMARK    7  A    between atoms: N_14  and  C_17 
REMARK    8  A    between atoms: S_25  and  C_32 
REMARK    9  A    between atoms: C_26  and  C_32 
ROOT
HETATM    1  C           1     170.963 187.392 289.503  0.00  0.00    -0.008 A 
HETATM    2  C           1     170.167 187.974 288.529  0.00  0.00     0.130 A 
HETATM    3  N           1     170.518 188.064 287.227  0.00  0.00    -0.253 NA
HETATM    4  C           1     171.718 187.546 286.886  0.00  0.00     0.101 A 
HETATM    5  C           1     172.582 186.944 287.788  0.00  0.00     0.006 A 
HETATM    6  C           1     172.193 186.867 289.121  0.00  0.00     0.025 A 
HETATM    7  C           1     170.558 187.334 290.776  0.00  0.00    -0.024 A 
HETATM    8  C           1     169.209 187.508 291.087  0.00  0.00     0.014 A 
HETATM    9  C           1     168.787 187.449 292.416  0.00  0.00     0.023 A 
HETATM   10  C           1     169.713 187.216 293.433  0.00  0.00     0.044 A 
HETATM   11  C           1     171.062 187.041 293.121  0.00  0.00     0.023 A 
HETATM   12  C           1     171.484 187.101 291.792  0.00  0.00     0.014 A 
HETATM   13  C           1     169.316 187.159 294.682  0.00  0.00     0.099 C 
HETATM   14  N           1     168.965 187.110 295.785  0.00  0.00    -0.191 NA
ENDROOT
BRANCH   5  15
HETATM   15  C           1     173.898 186.392 287.337  0.00  0.00     0.308 C 
BRANCH  15  16
HETATM   16  N           1     173.854 184.954 287.378  0.00  0.00     0.087 N 
HETATM   17  H           1     174.604 184.608 287.975  0.00  0.00     0.316 HD
BRANCH  16  18
HETATM   18  C           1     174.047 184.473 286.037  0.00  0.00     0.270 C 
BRANCH  18  19
HETATM   19  C           1     175.279 185.135 285.432  0.00  0.00     0.034 C 
BRANCH  19  20
HETATM   20  C           1     175.136 185.185 283.917  0.00  0.00    -0.010 C 
HETATM   21  C           1     173.695 184.863 283.538  0.00  0.00     0.035 C 
HETATM   22  C           1     173.449 185.089 282.048  0.00  0.00     0.272 C 
HETATM   23  N           1     173.806 186.451 281.647  0.00  0.00     0.088 N 
HETATM   24  C           1     175.211 186.743 281.937  0.00  0.00     0.272 C 
HETATM   25  C           1     175.521 186.577 283.424  0.00  0.00     0.035 C 
BRANCH  23  26
HETATM   26  C           1     173.634 186.502 280.221  0.00  0.00     0.268 C 
HETATM   27  C           1     172.264 187.080 279.894  0.00  0.00     0.037 C 
ENDBRANCH  23  26
ENDBRANCH  19  20
ENDBRANCH  18  19
ENDBRANCH  16  18
ENDBRANCH  15  16
ENDBRANCH   5  15
BRANCH   4  28
HETATM   28  S           1     172.229 187.645 285.148  0.00  0.00    -0.105 SA
BRANCH  28  29
HETATM   29  C           1     170.896 188.789 284.688  0.00  0.00     0.122 C 
BRANCH  29  30
HETATM   30  C           1     171.335 189.627 283.529  0.00  0.00    -0.049 A 
HETATM   31  C           1     170.492 190.616 283.024  0.00  0.00     0.008 A 
HETATM   32  C           1     170.902 191.397 281.942  0.00  0.00     0.001 A 
HETATM   33  C           1     172.155 191.188 281.367  0.00  0.00     0.000 A 
HETATM   34  C           1     172.998 190.199 281.872  0.00  0.00     0.001 A 
HETATM   35  C           1     172.589 189.418 282.953  0.00  0.00     0.008 A 
ENDBRANCH  29  30
ENDBRANCH  28  29
ENDBRANCH   4  28
TORSDOF 9
ENDMDL
MODEL 6
REMARK VINA RESULT:      -7.1      8.387     12.333
REMARK  9 active torsions:
REMARK  status: ('A' for Active; 'I' for Inactive)
REMARK    1  A    between atoms: C_4  and  S_25 
REMARK    2  A    between atoms: C_5  and  C_7 
REMARK    3  A    between atoms: C_7  and  N_8 
REMARK    4  A    between atoms: N_8  and  C_9 
REMARK    5  A    between atoms: C_9  and  C_10 
REMARK    6  A    between atoms: C_10  and  C_11 
REMARK    7  A    between atoms: N_14  and  C_17 
REMARK    8  A    between atoms: S_25  and  C_32 
REMARK    9  A    between atoms: C_26  and  C_32 
ROOT
HETATM    1  C           1     171.413 189.398 280.803  0.00  0.00    -0.008 A 
HETATM    2  C           1     170.663 188.806 279.798  0.00  0.00     0.130 A 
HETATM    3  N           1     171.045 187.695 279.132  0.00  0.00    -0.253 NA
HETATM    4  C           1     172.230 187.152 279.488  0.00  0.00     0.101 A 
HETATM    5  C           1     173.048 187.671 280.480  0.00  0.00     0.006 A 
HETATM    6  C           1     172.628 188.816 281.148  0.00  0.00     0.025 A 
HETATM    7  C           1     170.978 190.499 281.425  0.00  0.00    -0.024 A 
HETATM    8  C           1     169.632 190.856 281.352  0.00  0.00     0.014 A 
HETATM    9  C           1     169.179 192.005 282.001  0.00  0.00     0.023 A 
HETATM   10  C           1     170.072 192.797 282.722  0.00  0.00     0.044 A 
HETATM   11  C           1     171.419 192.440 282.795  0.00  0.00     0.023 A 
HETATM   12  C           1     171.872 191.291 282.146  0.00  0.00     0.014 A 
HETATM   13  C           1     169.646 193.878 283.333  0.00  0.00     0.099 C 
HETATM   14  N           1     169.269 194.831 283.871  0.00  0.00    -0.191 NA
ENDROOT
BRANCH   5  15
HETATM   15  C           1     174.350 187.015 280.822  0.00  0.00     0.308 C 
BRANCH  15  16
HETATM   16  N           1     174.839 187.541 282.068  0.00  0.00     0.087 N 
HETATM   17  H           1     175.490 188.304 281.883  0.00  0.00     0.316 HD
BRANCH  16  18
HETATM   18  C           1     175.526 186.479 282.751  0.00  0.00     0.270 C 
BRANCH  18  19
HETATM   19  C           1     174.707 185.198 282.653  0.00  0.00     0.034 C 
BRANCH  19  20
HETATM   20  C           1     174.195 184.815 284.034  0.00  0.00    -0.010 C 
HETATM   21  C           1     175.172 185.322 285.090  0.00  0.00     0.035 C 
HETATM   22  C           1     174.612 185.138 286.498  0.00  0.00     0.272 C 
HETATM   23  N           1     173.304 185.778 286.642  0.00  0.00     0.088 N 
HETATM   24  C           1     172.337 185.242 285.683  0.00  0.00     0.272 C 
HETATM   25  C           1     172.814 185.431 284.244  0.00  0.00     0.035 C 
BRANCH  23  26
HETATM   26  C           1     172.841 185.443 287.962  0.00  0.00     0.268 C 
HETATM   27  C           1     173.838 185.953 288.995  0.00  0.00     0.037 C 
ENDBRANCH  23  26
ENDBRANCH  19  20
ENDBRANCH  18  19
ENDBRANCH  16  18
ENDBRANCH  15  16
ENDBRANCH   5  15
BRANCH   4  28
HETATM   28  S           1     172.782 185.658 278.619  0.00  0.00    -0.105 SA
BRANCH  28  29
HETATM   29  C           1     173.109 186.531 277.061  0.00  0.00     0.122 C 
BRANCH  29  30
HETATM   30  C           1     174.495 186.214 276.592  0.00  0.00    -0.049 A 
HETATM   31  C           1     175.596 186.707 277.290  0.00  0.00     0.008 A 
HETATM   32  C           1     176.889 186.412 276.852  0.00  0.00     0.001 A 
HETATM   33  C           1     177.076 185.624 275.716  0.00  0.00     0.000 A 
HETATM   34  C           1     175.974 185.132 275.019  0.00  0.00     0.001 A 
HETATM   35  C           1     174.683 185.427 275.456  0.00  0.00     0.008 A 
ENDBRANCH  29  30
ENDBRANCH  28  29
ENDBRANCH   4  28
TORSDOF 9
ENDMDL
MODEL 7
REMARK VINA RESULT:      -7.0      3.750      7.099
REMARK  9 active torsions:
REMARK  status: ('A' for Active; 'I' for Inactive)
REMARK    1  A    between atoms: C_4  and  S_25 
REMARK    2  A    between atoms: C_5  and  C_7 
REMARK    3  A    between atoms: C_7  and  N_8 
REMARK    4  A    between atoms: N_8  and  C_9 
REMARK    5  A    between atoms: C_9  and  C_10 
REMARK    6  A    between atoms: C_10  and  C_11 
REMARK    7  A    between atoms: N_14  and  C_17 
REMARK    8  A    between atoms: S_25  and  C_32 
REMARK    9  A    between atoms: C_26  and  C_32 
ROOT
HETATM    1  C           1     175.186 185.288 272.563  0.00  0.00    -0.008 A 
HETATM    2  C           1     173.846 184.934 272.578  0.00  0.00     0.130 A 
HETATM    3  N           1     173.102 184.765 271.463  0.00  0.00    -0.253 NA
HETATM    4  C           1     173.728 184.958 270.282  0.00  0.00     0.101 A 
HETATM    5  C           1     175.063 185.313 270.166  0.00  0.00     0.006 A 
HETATM    6  C           1     175.804 185.479 271.332  0.00  0.00     0.025 A 
HETATM    7  C           1     175.868 185.439 273.703  0.00  0.00    -0.024 A 
HETATM    8  C           1     175.375 184.895 274.889  0.00  0.00     0.014 A 
HETATM    9  C           1     176.087 185.054 276.079  0.00  0.00     0.023 A 
HETATM   10  C           1     177.291 185.757 276.083  0.00  0.00     0.044 A 
HETATM   11  C           1     177.785 186.302 274.897  0.00  0.00     0.023 A 
HETATM   12  C           1     177.073 186.143 273.707  0.00  0.00     0.014 A 
HETATM   13  C           1     177.960 185.906 277.202  0.00  0.00     0.099 C 
HETATM   14  N           1     178.551 186.037 278.189  0.00  0.00    -0.191 NA
ENDROOT
BRANCH   5  15
HETATM   15  C           1     175.691 185.510 268.822  0.00  0.00     0.308 C 
BRANCH  15  16
HETATM   16  N           1     176.856 184.673 268.708  0.00  0.00     0.087 N 
HETATM   17  H           1     177.611 185.064 269.271  0.00  0.00     0.316 HD
BRANCH  16  18
HETATM   18  C           1     177.247 184.655 267.325  0.00  0.00     0.270 C 
BRANCH  18  19
HETATM   19  C           1     176.011 184.793 266.445  0.00  0.00     0.034 C 
BRANCH  19  20
HETATM   20  C           1     176.350 184.370 265.023  0.00  0.00    -0.010 C 
HETATM   21  C           1     177.364 183.231 265.066  0.00  0.00     0.035 C 
HETATM   22  C           1     177.592 182.639 263.677  0.00  0.00     0.272 C 
HETATM   23  N           1     176.336 182.201 263.069  0.00  0.00     0.088 N 
HETATM   24  C           1     175.384 183.306 262.952  0.00  0.00     0.272 C 
HETATM   25  C           1     175.074 183.923 264.316  0.00  0.00     0.035 C 
BRANCH  23  26
HETATM   26  C           1     176.668 181.768 261.739  0.00  0.00     0.268 C 
HETATM   27  C           1     178.180 181.645 261.607  0.00  0.00     0.037 C 
ENDBRANCH  23  26
ENDBRANCH  19  20
ENDBRANCH  18  19
ENDBRANCH  16  18
ENDBRANCH  15  16
ENDBRANCH   5  15
BRANCH   4  28
HETATM   28  S           1     172.766 184.743 268.759  0.00  0.00    -0.105 SA
BRANCH  28  29
HETATM   29  C           1     172.527 182.961 269.011  0.00  0.00     0.122 C 
BRANCH  29  30
HETATM   30  C           1     173.406 182.201 268.067  0.00  0.00    -0.049 A 
HETATM   31  C           1     174.718 181.898 268.428  0.00  0.00     0.008 A 
HETATM   32  C           1     175.538 181.189 267.547  0.00  0.00     0.001 A 
HETATM   33  C           1     175.043 180.786 266.307  0.00  0.00     0.000 A 
HETATM   34  C           1     173.731 181.089 265.947  0.00  0.00     0.001 A 
HETATM   35  C           1     172.912 181.797 266.827  0.00  0.00     0.008 A 
ENDBRANCH  29  30
ENDBRANCH  28  29
ENDBRANCH   4  28
TORSDOF 9
ENDMDL
MODEL 8
REMARK VINA RESULT:      -7.0      6.907      9.220
REMARK  9 active torsions:
REMARK  status: ('A' for Active; 'I' for Inactive)
REMARK    1  A    between atoms: C_4  and  S_25 
REMARK    2  A    between atoms: C_5  and  C_7 
REMARK    3  A    between atoms: C_7  and  N_8 
REMARK    4  A    between atoms: N_8  and  C_9 
REMARK    5  A    between atoms: C_9  and  C_10 
REMARK    6  A    between atoms: C_10  and  C_11 
REMARK    7  A    between atoms: N_14  and  C_17 
REMARK    8  A    between atoms: S_25  and  C_32 
REMARK    9  A    between atoms: C_26  and  C_32 
ROOT
HETATM    1  C           1     173.746 186.352 280.773  0.00  0.00    -0.008 A 
HETATM    2  C           1     174.747 186.929 280.006  0.00  0.00     0.130 A 
HETATM    3  N           1     174.652 187.125 278.673  0.00  0.00    -0.253 NA
HETATM    4  C           1     173.503 186.729 278.083  0.00  0.00     0.101 A 
HETATM    5  C           1     172.447 186.145 278.765  0.00  0.00     0.006 A 
HETATM    6  C           1     172.575 185.955 280.137  0.00  0.00     0.025 A 
HETATM    7  C           1     173.902 186.185 282.090  0.00  0.00    -0.024 A 
HETATM    8  C           1     174.883 186.904 282.774  0.00  0.00     0.014 A 
HETATM    9  C           1     175.046 186.728 284.149  0.00  0.00     0.023 A 
HETATM   10  C           1     174.229 185.833 284.839  0.00  0.00     0.044 A 
HETATM   11  C           1     173.248 185.114 284.156  0.00  0.00     0.023 A 
HETATM   12  C           1     173.085 185.290 282.781  0.00  0.00     0.014 A 
HETATM   13  C           1     174.382 185.669 286.132  0.00  0.00     0.099 C 
HETATM   14  N           1     174.518 185.524 287.273  0.00  0.00    -0.191 NA
ENDROOT
BRANCH   5  15
HETATM   15  C           1     171.203 185.730 278.044  0.00  0.00     0.308 C 
BRANCH  15  16
HETATM   16  N           1     170.090 186.506 278.523  0.00  0.00     0.087 N 
HETATM   17  H           1     169.337 185.880 278.808  0.00  0.00     0.316 HD
BRANCH  16  18
HETATM   18  C           1     169.639 187.337 277.440  0.00  0.00     0.270 C 
BRANCH  18  19
HETATM   19  C           1     170.022 188.785 277.717  0.00  0.00     0.034 C 
BRANCH  19  20
HETATM   20  C           1     169.844 189.082 279.200  0.00  0.00    -0.010 C 
HETATM   21  C           1     171.172 189.561 279.778  0.00  0.00     0.035 C 
HETATM   22  C           1     171.005 190.058 281.213  0.00  0.00     0.272 C 
HETATM   23  N           1     169.985 191.104 281.302  0.00  0.00     0.088 N 
HETATM   24  C           1     168.688 190.628 280.820  0.00  0.00     0.272 C 
HETATM   25  C           1     168.770 190.152 279.370  0.00  0.00     0.035 C 
BRANCH  23  26
HETATM   26  C           1     169.848 191.406 282.701  0.00  0.00     0.268 C 
HETATM   27  C           1     171.010 192.282 283.148  0.00  0.00     0.037 C 
ENDBRANCH  23  26
ENDBRANCH  19  20
ENDBRANCH  18  19
ENDBRANCH  16  18
ENDBRANCH  15  16
ENDBRANCH   5  15
BRANCH   4  28
HETATM   28  S           1     173.333 186.975 276.293  0.00  0.00    -0.105 SA
BRANCH  28  29
HETATM   29  C           1     174.176 185.424 275.871  0.00  0.00     0.122 C 
BRANCH  29  30
HETATM   30  C           1     175.587 185.716 275.467  0.00  0.00    -0.049 A 
HETATM   31  C           1     175.866 186.153 274.172  0.00  0.00     0.008 A 
HETATM   32  C           1     177.182 186.426 273.797  0.00  0.00     0.001 A 
HETATM   33  C           1     178.218 186.260 274.716  0.00  0.00     0.000 A 
HETATM   34  C           1     177.939 185.824 276.010  0.00  0.00     0.001 A 
HETATM   35  C           1     176.623 185.551 276.386  0.00  0.00     0.008 A 
ENDBRANCH  29  30
ENDBRANCH  28  29
ENDBRANCH   4  28
TORSDOF 9
ENDMDL
MODEL 9
REMARK VINA RESULT:      -6.9      1.784      3.803
REMARK  9 active torsions:
REMARK  status: ('A' for Active; 'I' for Inactive)
REMARK    1  A    between atoms: C_4  and  S_25 
REMARK    2  A    between atoms: C_5  and  C_7 
REMARK    3  A    between atoms: C_7  and  N_8 
REMARK    4  A    between atoms: N_8  and  C_9 
REMARK    5  A    between atoms: C_9  and  C_10 
REMARK    6  A    between atoms: C_10  and  C_11 
REMARK    7  A    between atoms: N_14  and  C_17 
REMARK    8  A    between atoms: S_25  and  C_32 
REMARK    9  A    between atoms: C_26  and  C_32 
ROOT
HETATM    1  C           1     174.944 185.662 272.552  0.00  0.00    -0.008 A 
HETATM    2  C           1     173.600 185.333 272.643  0.00  0.00     0.130 A 
HETATM    3  N           1     172.753 185.336 271.591  0.00  0.00    -0.253 NA
HETATM    4  C           1     173.276 185.681 270.394  0.00  0.00     0.101 A 
HETATM    5  C           1     174.606 186.025 270.203  0.00  0.00     0.006 A 
HETATM    6  C           1     175.453 186.013 271.306  0.00  0.00     0.025 A 
HETATM    7  C           1     175.731 185.640 273.633  0.00  0.00    -0.024 A 
HETATM    8  C           1     175.330 184.944 274.773  0.00  0.00     0.014 A 
HETATM    9  C           1     176.151 184.922 275.902  0.00  0.00     0.023 A 
HETATM   10  C           1     177.371 185.597 275.890  0.00  0.00     0.044 A 
HETATM   11  C           1     177.772 186.293 274.749  0.00  0.00     0.023 A 
HETATM   12  C           1     176.951 186.315 273.621  0.00  0.00     0.014 A 
HETATM   13  C           1     178.143 185.575 276.951  0.00  0.00     0.099 C 
HETATM   14  N           1     178.824 185.557 277.887  0.00  0.00    -0.191 NA
ENDROOT
BRANCH   5  15
HETATM   15  C           1     175.115 186.398 268.846  0.00  0.00     0.308 C 
BRANCH  15  16
HETATM   16  N           1     175.405 187.807 268.813  0.00  0.00     0.087 N 
HETATM   17  H           1     175.181 188.221 269.718  0.00  0.00     0.316 HD
BRANCH  16  18
HETATM   18  C           1     174.579 188.399 267.796  0.00  0.00     0.270 C 
BRANCH  18  19
HETATM   19  C           1     174.620 189.916 267.928  0.00  0.00     0.034 C 
BRANCH  19  20
HETATM   20  C           1     174.294 190.311 269.361  0.00  0.00    -0.010 C 
HETATM   21  C           1     175.291 191.366 269.830  0.00  0.00     0.035 C 
HETATM   22  C           1     174.894 191.940 271.189  0.00  0.00     0.272 C 
HETATM   23  N           1     173.532 192.475 271.167  0.00  0.00     0.088 N 
HETATM   24  C           1     172.559 191.448 270.793  0.00  0.00     0.272 C 
HETATM   25  C           1     172.870 190.857 269.419  0.00  0.00     0.035 C 
BRANCH  23  26
HETATM   26  C           1     173.243 192.880 272.516  0.00  0.00     0.268 C 
HETATM   27  C           1     174.482 193.517 273.132  0.00  0.00     0.037 C 
ENDBRANCH  23  26
ENDBRANCH  19  20
ENDBRANCH  18  19
ENDBRANCH  16  18
ENDBRANCH  15  16
ENDBRANCH   5  15
BRANCH   4  28
HETATM   28  S           1     172.174 185.698 268.952  0.00  0.00    -0.105 SA
BRANCH  28  29
HETATM   29  C           1     172.062 183.888 268.857  0.00  0.00     0.122 C 
BRANCH  29  30
HETATM   30  C           1     173.281 183.348 268.177  0.00  0.00    -0.049 A 
HETATM   31  C           1     174.174 182.543 268.883  0.00  0.00     0.008 A 
HETATM   32  C           1     175.311 182.040 268.248  0.00  0.00     0.001 A 
HETATM   33  C           1     175.552 182.342 266.908  0.00  0.00     0.000 A 
HETATM   34  C           1     174.659 183.147 266.203  0.00  0.00     0.001 A 
HETATM   35  C           1     173.522 183.650 266.837  0.00  0.00     0.008 A 
ENDBRANCH  29  30
ENDBRANCH  28  29
ENDBRANCH   4  28
TORSDOF 9
ENDMDL
