REMARK  12 active torsions:
REMARK  status: ('A' for Active; 'I' for Inactive)
REMARK    1  A    between atoms: C2_2  and  N1_3 
REMARK    2  A    between atoms: C7_8  and  C8_9 
REMARK    3  A    between atoms: C8_9  and  C9_10 
REMARK    4  A    between atoms: C9_10  and  N2_11 
REMARK    5  A    between atoms: N2_11  and  C10_12 
REMARK    6  A    between atoms: C10_12  and  C11_13 
REMARK    7  A    between atoms: C15_17  and  O1_18 
REMARK    8  A    between atoms: C17_20  and  O2_21 
REMARK    9  A    between atoms: C19_23  and  O3_24 
REMARK   10  A    between atoms: C22_28  and  S1_29 
REMARK   11  A    between atoms: S1_29  and  C23_30 
REMARK   12  A    between atoms: C23_30  and  C24_31 
ROOT
HETATM    1  C11 UNL     1       1.731   1.015  -1.906  1.00  0.00     0.006 A 
HETATM    2  C12 UNL     1       1.089   0.023  -2.665  1.00  0.00     0.025 A 
HETATM    3  C13 UNL     1      -0.143  -0.500  -2.256  1.00  0.00    -0.001 A 
HETATM    4  C14 UNL     1      -0.780  -1.499  -2.994  1.00  0.00     0.053 A 
HETATM    5  C15 UNL     1      -2.028  -1.994  -2.608  1.00  0.00     0.105 A 
HETATM    6  C17 UNL     1      -2.654  -1.498  -1.430  1.00  0.00     0.137 A 
HETATM    7  C19 UNL     1      -1.984  -0.509  -0.656  1.00  0.00     0.134 A 
HETATM    8  C21 UNL     1      -0.742  -0.006  -1.087  1.00  0.00     0.104 A 
HETATM    9  N3  UNL     1      -0.124   0.984  -0.391  1.00  0.00    -0.238 NA
HETATM   10  C22 UNL     1       1.073   1.512  -0.761  1.00  0.00     0.102 A 
ENDROOT
BRANCH   1  11
HETATM   11  C10 UNL     1       3.134   1.440  -2.299  1.00  0.00     0.311 C 
BRANCH  11  12
HETATM   12  N2  UNL     1       4.118   0.370  -2.046  1.00  0.00     0.087 N 
HETATM   13  H19 UNL     1       3.739  -0.535  -2.410  1.00  0.00     0.316 HD
BRANCH  12  14
HETATM   14  C9  UNL     1       4.449   0.255  -0.610  1.00  0.00     0.270 C 
BRANCH  14  15
HETATM   15  C8  UNL     1       5.007  -1.142  -0.249  1.00  0.00     0.034 C 
BRANCH  15  16
HETATM   16  C7  UNL     1       3.989  -2.103   0.425  1.00  0.00    -0.010 C 
HETATM   17  C4  UNL     1       3.542  -1.638   1.840  1.00  0.00     0.035 C 
HETATM   18  C3  UNL     1       2.042  -1.296   1.911  1.00  0.00     0.272 C 
HETATM   19  N1  UNL     1       1.165  -2.402   1.441  1.00  0.00     0.088 N 
HETATM   20  C5  UNL     1       1.734  -3.204   0.324  1.00  0.00     0.272 C 
HETATM   21  C6  UNL     1       2.786  -2.429  -0.477  1.00  0.00     0.035 C 
BRANCH  19  22
HETATM   22  C2  UNL     1       0.719  -3.261   2.560  1.00  0.00     0.268 C 
HETATM   23  C1  UNL     1      -0.456  -4.148   2.147  1.00  0.00     0.037 C 
ENDBRANCH  19  22
ENDBRANCH  15  16
ENDBRANCH  14  15
ENDBRANCH  12  14
ENDBRANCH  11  12
ENDBRANCH   1  11
BRANCH  10  24
HETATM   24  S1  UNL     1       1.780   2.808   0.270  1.00  0.00    -0.105 SA
BRANCH  24  25
HETATM   25  C23 UNL     1       0.633   4.107  -0.326  1.00  0.00     0.119 C 
BRANCH  25  26
HETATM   26  C24 UNL     1      -0.700   4.153   0.401  1.00  0.00    -0.049 A 
HETATM   27  C25 UNL     1      -0.962   3.430   1.584  1.00  0.00     0.008 A 
HETATM   28  C26 UNL     1      -2.199   3.544   2.227  1.00  0.00     0.001 A 
HETATM   29  C27 UNL     1      -3.189   4.377   1.707  1.00  0.00     0.000 A 
HETATM   30  C28 UNL     1      -2.942   5.105   0.542  1.00  0.00     0.001 A 
HETATM   31  C29 UNL     1      -1.706   4.997  -0.105  1.00  0.00     0.008 A 
ENDBRANCH  25  26
ENDBRANCH  24  25
ENDBRANCH  10  24
BRANCH   5  32
HETATM   32  O1  UNL     1      -2.593  -2.972  -3.450  1.00  0.00    -0.353 OA
HETATM   33  C16 UNL     1      -3.911  -3.503  -3.373  1.00  0.00     0.210 C 
ENDBRANCH   5  32
BRANCH   7  34
HETATM   34  O3  UNL     1      -2.565  -0.005   0.515  1.00  0.00    -0.351 OA
HETATM   35  C20 UNL     1      -1.985  -0.184   1.806  1.00  0.00     0.210 C 
ENDBRANCH   7  34
BRANCH   6  36
HETATM   36  O2  UNL     1      -3.916  -2.015  -1.072  1.00  0.00    -0.351 OA
HETATM   37  C18 UNL     1      -4.753  -1.583  -0.001  1.00  0.00     0.210 C 
ENDBRANCH   6  36
TORSDOF 12
