MODEL 1
REMARK VINA RESULT:      -7.8      0.000      0.000
REMARK  10 active torsions:
REMARK  status: ('A' for Active; 'I' for Inactive)
REMARK    1  A    between atoms: C_3  and  C_19 
REMARK    2  A    between atoms: C_6  and  S_10 
REMARK    3  A    between atoms: C_7  and  C_9 
REMARK    4  A    between atoms: C_9  and  N_18 
REMARK    5  A    between atoms: S_10  and  C_11 
REMARK    6  A    between atoms: C_11  and  C_12 
REMARK    7  A    between atoms: N_18  and  C_20 
REMARK    8  A    between atoms: C_20  and  C_21 
REMARK    9  A    between atoms: C_21  and  N_22 
REMARK   10  A    between atoms: C_31  and  O_35 
ROOT
HETATM    1  C           1     174.516 186.890 280.460  0.00  0.00     0.101 A 
HETATM    2  C           1     173.405 186.410 281.134  0.00  0.00    -0.010 A 
HETATM    3  N           1     174.561 187.083 279.124  0.00  0.00    -0.359 N 
ATOM      4  HN          1     175.398 187.438 278.661  1.00  0.00     0.166 HD
HETATM    5  C           1     173.441 186.782 278.431  0.00  0.00     0.077 A 
HETATM    6  C           1     172.280 186.297 279.015  0.00  0.00     0.004 A 
HETATM    7  C           1     172.267 186.110 280.393  0.00  0.00     0.025 A 
ENDROOT
BRANCH   6   8
HETATM    8  C           1     171.076 185.985 278.184  0.00  0.00     0.311 C 
BRANCH   8   9
HETATM    9  N           1     169.971 186.801 278.615  0.00  0.00     0.089 N 
HETATM   10  H           1     169.129 186.229 278.671  0.00  0.00     0.316 HD
BRANCH   9  11
HETATM   11  C           1     169.783 187.836 277.634  0.00  0.00     0.300 C 
BRANCH  11  12
HETATM   12  C           1     170.292 189.159 278.188  0.00  0.00     0.302 C 
BRANCH  12  13
HETATM   13  N           1     170.016 189.230 279.597  0.00  0.00     0.093 N 
HETATM   14  C           1     171.250 189.692 280.254  0.00  0.00     0.302 C 
HETATM   15  C           1     171.040 190.063 281.739  0.00  0.00     0.302 C 
HETATM   16  N           1     169.975 191.062 281.936  0.00  0.00     0.087 N 
HETATM   17  C           1     169.720 191.128 283.349  0.00  0.00     0.310 C 
HETATM   18  C           1     168.740 190.599 281.278  0.00  0.00     0.302 C 
HETATM   19  C           1     168.951 190.229 279.795  0.00  0.00     0.302 C 
ENDBRANCH  12  13
ENDBRANCH  11  12
ENDBRANCH   9  11
ENDBRANCH   8   9
ENDBRANCH   6   8
BRANCH   5  20
HETATM   20  S           1     173.456 187.026 276.634  0.00  0.00    -0.107 SA
BRANCH  20  21
HETATM   21  C           1     174.299 185.455 276.299  0.00  0.00     0.119 C 
BRANCH  21  22
HETATM   22  C           1     175.666 185.727 275.754  0.00  0.00    -0.049 A 
HETATM   23  C           1     175.829 186.057 274.409  0.00  0.00     0.008 A 
HETATM   24  C           1     177.103 186.311 273.901  0.00  0.00     0.001 A 
HETATM   25  C           1     178.215 186.234 274.740  0.00  0.00     0.000 A 
HETATM   26  C           1     178.053 185.903 276.085  0.00  0.00     0.001 A 
HETATM   27  C           1     176.779 185.649 276.592  0.00  0.00     0.008 A 
ENDBRANCH  21  22
ENDBRANCH  20  21
ENDBRANCH   5  20
BRANCH   2  28
HETATM   28  C           1     173.425 186.242 282.460  0.00  0.00    -0.021 A 
HETATM   29  C           1     172.613 187.029 283.275  0.00  0.00     0.015 A 
HETATM   30  C           1     172.636 186.853 284.659  0.00  0.00     0.041 A 
HETATM   31  C           1     173.470 185.891 285.227  0.00  0.00     0.106 A 
HETATM   32  C           1     174.282 185.104 284.411  0.00  0.00     0.150 A 
HETATM   33  F           1     175.072 184.193 284.948  0.00  0.00    -0.203 F 
HETATM   34  C           1     174.260 185.279 283.028  0.00  0.00     0.057 A 
BRANCH  31  35
HETATM   35  O           1     173.492 185.720 286.571  0.00  0.00    -0.353 OA
HETATM   36  C           1     173.190 186.920 287.230  0.00  0.00     0.210 C 
ENDBRANCH  31  35
ENDBRANCH   2  28
TORSDOF 10
ENDMDL
MODEL 2
REMARK VINA RESULT:      -7.6      2.205      3.620
REMARK  10 active torsions:
REMARK  status: ('A' for Active; 'I' for Inactive)
REMARK    1  A    between atoms: C_3  and  C_19 
REMARK    2  A    between atoms: C_6  and  S_10 
REMARK    3  A    between atoms: C_7  and  C_9 
REMARK    4  A    between atoms: C_9  and  N_18 
REMARK    5  A    between atoms: S_10  and  C_11 
REMARK    6  A    between atoms: C_11  and  C_12 
REMARK    7  A    between atoms: N_18  and  C_20 
REMARK    8  A    between atoms: C_20  and  C_21 
REMARK    9  A    between atoms: C_21  and  N_22 
REMARK   10  A    between atoms: C_31  and  O_35 
ROOT
HETATM    1  C           1     174.824 186.825 281.055  0.00  0.00     0.101 A 
HETATM    2  C           1     173.715 186.165 281.558  0.00  0.00    -0.010 A 
HETATM    3  N           1     174.989 187.133 279.750  0.00  0.00    -0.359 N 
ATOM      4  HN          1     175.820 187.619 279.415  1.00  0.00     0.166 HD
HETATM    5  C           1     173.997 186.763 278.911  0.00  0.00     0.077 A 
HETATM    6  C           1     172.849 186.100 279.319  0.00  0.00     0.004 A 
HETATM    7  C           1     172.710 185.798 280.669  0.00  0.00     0.025 A 
ENDROOT
BRANCH   6   8
HETATM    8  C           1     171.790 185.721 278.332  0.00  0.00     0.311 C 
BRANCH   8   9
HETATM    9  N           1     170.560 186.387 278.669  0.00  0.00     0.089 N 
HETATM   10  H           1     169.785 185.731 278.584  0.00  0.00     0.316 HD
BRANCH   9  11
HETATM   11  C           1     170.378 187.468 277.738  0.00  0.00     0.300 C 
BRANCH  11  12
HETATM   12  C           1     170.038 186.905 276.365  0.00  0.00     0.302 C 
BRANCH  12  13
HETATM   13  N           1     170.487 187.816 275.348  0.00  0.00     0.093 N 
HETATM   14  C           1     171.060 188.984 276.039  0.00  0.00     0.302 C 
HETATM   15  C           1     171.816 189.937 275.087  0.00  0.00     0.302 C 
HETATM   16  N           1     172.871 189.258 274.315  0.00  0.00     0.087 N 
HETATM   17  C           1     173.316 190.187 273.311  0.00  0.00     0.310 C 
HETATM   18  C           1     172.299 188.090 273.623  0.00  0.00     0.302 C 
HETATM   19  C           1     171.543 187.138 274.574  0.00  0.00     0.302 C 
ENDBRANCH  12  13
ENDBRANCH  11  12
ENDBRANCH   9  11
ENDBRANCH   8   9
ENDBRANCH   6   8
BRANCH   5  20
HETATM   20  S           1     174.176 187.157 277.149  0.00  0.00    -0.107 SA
BRANCH  20  21
HETATM   21  C           1     175.034 185.606 276.759  0.00  0.00     0.119 C 
BRANCH  21  22
HETATM   22  C           1     175.527 185.649 275.346  0.00  0.00    -0.049 A 
HETATM   23  C           1     176.769 186.215 275.057  0.00  0.00     0.008 A 
HETATM   24  C           1     177.229 186.254 273.742  0.00  0.00     0.001 A 
HETATM   25  C           1     176.446 185.727 272.713  0.00  0.00     0.000 A 
HETATM   26  C           1     175.204 185.162 273.002  0.00  0.00     0.001 A 
HETATM   27  C           1     174.745 185.123 274.318  0.00  0.00     0.008 A 
ENDBRANCH  21  22
ENDBRANCH  20  21
ENDBRANCH   5  20
BRANCH   2  28
HETATM   28  C           1     173.612 185.890 282.862  0.00  0.00    -0.021 A 
HETATM   29  C           1     172.588 186.461 283.617  0.00  0.00     0.015 A 
HETATM   30  C           1     172.482 186.174 284.978  0.00  0.00     0.041 A 
HETATM   31  C           1     173.400 185.316 285.584  0.00  0.00     0.106 A 
HETATM   32  C           1     174.424 184.746 284.829  0.00  0.00     0.150 A 
HETATM   33  F           1     175.293 183.935 285.402  0.00  0.00    -0.203 F 
HETATM   34  C           1     174.531 185.033 283.469  0.00  0.00     0.057 A 
BRANCH  31  35
HETATM   35  O           1     173.297 185.038 286.906  0.00  0.00    -0.353 OA
HETATM   36  C           1     174.103 185.901 287.661  0.00  0.00     0.210 C 
ENDBRANCH  31  35
ENDBRANCH   2  28
TORSDOF 10
ENDMDL
MODEL 3
REMARK VINA RESULT:      -7.6      7.937     12.464
REMARK  10 active torsions:
REMARK  status: ('A' for Active; 'I' for Inactive)
REMARK    1  A    between atoms: C_3  and  C_19 
REMARK    2  A    between atoms: C_6  and  S_10 
REMARK    3  A    between atoms: C_7  and  C_9 
REMARK    4  A    between atoms: C_9  and  N_18 
REMARK    5  A    between atoms: S_10  and  C_11 
REMARK    6  A    between atoms: C_11  and  C_12 
REMARK    7  A    between atoms: N_18  and  C_20 
REMARK    8  A    between atoms: C_20  and  C_21 
REMARK    9  A    between atoms: C_21  and  N_22 
REMARK   10  A    between atoms: C_31  and  O_35 
ROOT
HETATM    1  C           1     174.278 186.307 271.725  0.00  0.00     0.101 A 
HETATM    2  C           1     175.398 185.581 272.099  0.00  0.00    -0.010 A 
HETATM    3  N           1     173.695 186.217 270.510  0.00  0.00    -0.359 N 
ATOM      4  HN          1     172.871 186.768 270.269  1.00  0.00     0.166 HD
HETATM    5  C           1     174.258 185.361 269.630  0.00  0.00     0.077 A 
HETATM    6  C           1     175.378 184.593 269.910  0.00  0.00     0.004 A 
HETATM    7  C           1     175.954 184.708 271.170  0.00  0.00     0.025 A 
ENDROOT
BRANCH   6   8
HETATM    8  C           1     175.948 183.665 268.884  0.00  0.00     0.311 C 
BRANCH   8   9
HETATM    9  N           1     177.214 184.173 268.428  0.00  0.00     0.089 N 
HETATM   10  H           1     177.319 185.142 268.729  0.00  0.00     0.316 HD
BRANCH   9  11
HETATM   11  C           1     177.217 184.115 266.992  0.00  0.00     0.300 C 
BRANCH  11  12
HETATM   12  C           1     176.622 182.791 266.535  0.00  0.00     0.302 C 
BRANCH  12  13
HETATM   13  N           1     176.003 182.960 265.248  0.00  0.00     0.093 N 
HETATM   14  C           1     174.546 182.882 265.459  0.00  0.00     0.302 C 
HETATM   15  C           1     173.735 183.300 264.213  0.00  0.00     0.302 C 
HETATM   16  N           1     174.088 184.643 263.721  0.00  0.00     0.087 N 
HETATM   17  C           1     173.451 184.800 262.441  0.00  0.00     0.310 C 
HETATM   18  C           1     175.544 184.721 263.510  0.00  0.00     0.302 C 
HETATM   19  C           1     176.355 184.304 264.755  0.00  0.00     0.302 C 
ENDBRANCH  12  13
ENDBRANCH  11  12
ENDBRANCH   9  11
ENDBRANCH   8   9
ENDBRANCH   6   8
BRANCH   5  20
HETATM   20  S           1     173.507 185.209 267.985  0.00  0.00    -0.107 SA
BRANCH  20  21
HETATM   21  C           1     174.560 186.489 267.245  0.00  0.00     0.119 C 
BRANCH  21  22
HETATM   22  C           1     173.873 187.816 267.335  0.00  0.00    -0.049 A 
HETATM   23  C           1     172.564 187.957 266.874  0.00  0.00     0.008 A 
HETATM   24  C           1     171.924 189.193 266.958  0.00  0.00     0.001 A 
HETATM   25  C           1     172.592 190.289 267.504  0.00  0.00     0.000 A 
HETATM   26  C           1     173.901 190.148 267.966  0.00  0.00     0.001 A 
HETATM   27  C           1     174.541 188.912 267.880  0.00  0.00     0.008 A 
ENDBRANCH  21  22
ENDBRANCH  20  21
ENDBRANCH   5  20
BRANCH   2  28
HETATM   28  C           1     175.927 185.715 273.319  0.00  0.00    -0.021 A 
HETATM   29  C           1     177.207 186.247 273.469  0.00  0.00     0.015 A 
HETATM   30  C           1     177.759 186.386 274.742  0.00  0.00     0.041 A 
HETATM   31  C           1     177.031 185.994 275.865  0.00  0.00     0.106 A 
HETATM   32  C           1     175.751 185.462 275.715  0.00  0.00     0.150 A 
HETATM   33  F           1     175.062 185.092 276.778  0.00  0.00    -0.203 F 
HETATM   34  C           1     175.199 185.323 274.442  0.00  0.00     0.057 A 
BRANCH  31  35
HETATM   35  O           1     177.568 186.130 277.102  0.00  0.00    -0.353 OA
HETATM   36  C           1     178.670 185.279 277.263  0.00  0.00     0.210 C 
ENDBRANCH  31  35
ENDBRANCH   2  28
TORSDOF 10
ENDMDL
MODEL 4
REMARK VINA RESULT:      -7.4      4.200      8.403
REMARK  10 active torsions:
REMARK  status: ('A' for Active; 'I' for Inactive)
REMARK    1  A    between atoms: C_3  and  C_19 
REMARK    2  A    between atoms: C_6  and  S_10 
REMARK    3  A    between atoms: C_7  and  C_9 
REMARK    4  A    between atoms: C_9  and  N_18 
REMARK    5  A    between atoms: S_10  and  C_11 
REMARK    6  A    between atoms: C_11  and  C_12 
REMARK    7  A    between atoms: N_18  and  C_20 
REMARK    8  A    between atoms: C_20  and  C_21 
REMARK    9  A    between atoms: C_21  and  N_22 
REMARK   10  A    between atoms: C_31  and  O_35 
ROOT
HETATM    1  C           1     175.355 186.735 277.763  0.00  0.00     0.101 A 
HETATM    2  C           1     174.549 186.168 276.789  0.00  0.00    -0.010 A 
HETATM    3  N           1     174.941 187.001 279.021  0.00  0.00    -0.359 N 
ATOM      4  HN          1     175.563 187.421 279.712  1.00  0.00     0.166 HD
HETATM    5  C           1     173.662 186.684 279.317  0.00  0.00     0.077 A 
HETATM    6  C           1     172.780 186.114 278.412  0.00  0.00     0.004 A 
HETATM    7  C           1     173.237 185.852 277.125  0.00  0.00     0.025 A 
ENDROOT
BRANCH   6   8
HETATM    8  C           1     171.375 185.788 278.811  0.00  0.00     0.311 C 
BRANCH   8   9
HETATM    9  N           1     170.500 185.979 277.685  0.00  0.00     0.089 N 
HETATM   10  H           1     171.045 185.952 276.824  0.00  0.00     0.316 HD
BRANCH   9  11
HETATM   11  C           1     169.884 187.270 277.823  0.00  0.00     0.300 C 
BRANCH  11  12
HETATM   12  C           1     169.643 187.869 276.444  0.00  0.00     0.302 C 
BRANCH  12  13
HETATM   13  N           1     170.796 187.642 275.614  0.00  0.00     0.093 N 
HETATM   14  C           1     170.303 187.449 274.239  0.00  0.00     0.302 C 
HETATM   15  C           1     171.435 187.448 273.189  0.00  0.00     0.302 C 
HETATM   16  N           1     172.272 188.660 273.245  0.00  0.00     0.087 N 
HETATM   17  C           1     173.411 188.420 272.401  0.00  0.00     0.310 C 
HETATM   18  C           1     172.764 188.853 274.620  0.00  0.00     0.302 C 
HETATM   19  C           1     171.633 188.854 275.669  0.00  0.00     0.302 C 
ENDBRANCH  12  13
ENDBRANCH  11  12
ENDBRANCH   9  11
ENDBRANCH   8   9
ENDBRANCH   6   8
BRANCH   5  20
HETATM   20  S           1     173.064 187.024 280.996  0.00  0.00    -0.107 SA
BRANCH  20  21
HETATM   21  C           1     174.505 186.270 281.800  0.00  0.00     0.119 C 
BRANCH  21  22
HETATM   22  C           1     174.136 185.836 283.184  0.00  0.00    -0.049 A 
HETATM   23  C           1     172.803 185.867 283.593  0.00  0.00     0.008 A 
HETATM   24  C           1     172.458 185.462 284.882  0.00  0.00     0.001 A 
HETATM   25  C           1     173.448 185.026 285.764  0.00  0.00     0.000 A 
HETATM   26  C           1     174.781 184.994 285.355  0.00  0.00     0.001 A 
HETATM   27  C           1     175.125 185.400 284.065  0.00  0.00     0.008 A 
ENDBRANCH  21  22
ENDBRANCH  20  21
ENDBRANCH   5  20
BRANCH   2  28
HETATM   28  C           1     175.020 185.929 275.561  0.00  0.00    -0.021 A 
HETATM   29  C           1     174.194 185.352 274.597  0.00  0.00     0.015 A 
HETATM   30  C           1     174.686 185.102 273.316  0.00  0.00     0.041 A 
HETATM   31  C           1     176.004 185.430 272.999  0.00  0.00     0.106 A 
HETATM   32  C           1     176.830 186.007 273.963  0.00  0.00     0.150 A 
HETATM   33  F           1     178.077 186.317 273.663  0.00  0.00    -0.203 F 
HETATM   34  C           1     176.338 186.256 275.244  0.00  0.00     0.057 A 
BRANCH  31  35
HETATM   35  O           1     176.482 185.188 271.755  0.00  0.00    -0.353 OA
HETATM   36  C           1     175.860 184.065 271.192  0.00  0.00     0.210 C 
ENDBRANCH  31  35
ENDBRANCH   2  28
TORSDOF 10
ENDMDL
MODEL 5
REMARK VINA RESULT:      -7.4      8.354     12.589
REMARK  10 active torsions:
REMARK  status: ('A' for Active; 'I' for Inactive)
REMARK    1  A    between atoms: C_3  and  C_19 
REMARK    2  A    between atoms: C_6  and  S_10 
REMARK    3  A    between atoms: C_7  and  C_9 
REMARK    4  A    between atoms: C_9  and  N_18 
REMARK    5  A    between atoms: S_10  and  C_11 
REMARK    6  A    between atoms: C_11  and  C_12 
REMARK    7  A    between atoms: N_18  and  C_20 
REMARK    8  A    between atoms: C_20  and  C_21 
REMARK    9  A    between atoms: C_21  and  N_22 
REMARK   10  A    between atoms: C_31  and  O_35 
ROOT
HETATM    1  C           1     175.629 184.582 269.369  0.00  0.00     0.101 A 
HETATM    2  C           1     175.612 185.369 268.228  0.00  0.00    -0.010 A 
HETATM    3  N           1     175.274 185.026 270.594  0.00  0.00    -0.359 N 
ATOM      4  HN          1     175.299 184.418 271.412  1.00  0.00     0.166 HD
HETATM    5  C           1     174.884 186.316 270.681  0.00  0.00     0.077 A 
HETATM    6  C           1     174.833 187.181 269.598  0.00  0.00     0.004 A 
HETATM    7  C           1     175.205 186.693 268.350  0.00  0.00     0.025 A 
ENDROOT
BRANCH   6   8
HETATM    8  C           1     174.390 188.600 269.769  0.00  0.00     0.311 C 
BRANCH   8   9
HETATM    9  N           1     175.528 189.474 269.664  0.00  0.00     0.089 N 
HETATM   10  H           1     176.377 188.954 269.886  0.00  0.00     0.316 HD
BRANCH   9  11
HETATM   11  C           1     175.353 190.536 270.618  0.00  0.00     0.300 C 
BRANCH  11  12
HETATM   12  C           1     174.081 191.307 270.293  0.00  0.00     0.302 C 
BRANCH  12  13
HETATM   13  N           1     173.587 191.943 271.484  0.00  0.00     0.093 N 
HETATM   14  C           1     173.475 190.897 272.515  0.00  0.00     0.302 C 
HETATM   15  C           1     173.201 191.467 273.924  0.00  0.00     0.302 C 
HETATM   16  N           1     174.201 192.465 274.344  0.00  0.00     0.087 N 
HETATM   17  C           1     173.697 193.082 275.542  0.00  0.00     0.310 C 
HETATM   18  C           1     174.313 193.511 273.313  0.00  0.00     0.302 C 
HETATM   19  C           1     174.586 192.942 271.905  0.00  0.00     0.302 C 
ENDBRANCH  12  13
ENDBRANCH  11  12
ENDBRANCH   9  11
ENDBRANCH   8   9
ENDBRANCH   6   8
BRANCH   5  20
HETATM   20  S           1     174.397 186.954 272.308  0.00  0.00    -0.107 SA
BRANCH  20  21
HETATM   21  C           1     174.691 185.377 273.156  0.00  0.00     0.119 C 
BRANCH  21  22
HETATM   22  C           1     175.802 185.541 274.146  0.00  0.00    -0.049 A 
HETATM   23  C           1     175.681 185.000 275.426  0.00  0.00     0.008 A 
HETATM   24  C           1     176.716 185.151 276.348  0.00  0.00     0.001 A 
HETATM   25  C           1     177.873 185.845 275.990  0.00  0.00     0.000 A 
HETATM   26  C           1     177.994 186.385 274.710  0.00  0.00     0.001 A 
HETATM   27  C           1     176.958 186.234 273.789  0.00  0.00     0.008 A 
ENDBRANCH  21  22
ENDBRANCH  20  21
ENDBRANCH   5  20
BRANCH   2  28
HETATM   28  C           1     175.976 184.868 267.043  0.00  0.00    -0.021 A 
HETATM   29  C           1     177.037 183.967 266.963  0.00  0.00     0.015 A 
HETATM   30  C           1     177.416 183.445 265.726  0.00  0.00     0.041 A 
HETATM   31  C           1     176.735 183.825 264.570  0.00  0.00     0.106 A 
HETATM   32  C           1     175.675 184.727 264.651  0.00  0.00     0.150 A 
HETATM   33  F           1     175.030 185.086 263.556  0.00  0.00    -0.203 F 
HETATM   34  C           1     175.295 185.248 265.887  0.00  0.00     0.057 A 
BRANCH  31  35
HETATM   35  O           1     177.104 183.318 263.369  0.00  0.00    -0.353 OA
HETATM   36  C           1     177.751 182.085 263.526  0.00  0.00     0.210 C 
ENDBRANCH  31  35
ENDBRANCH   2  28
TORSDOF 10
ENDMDL
MODEL 6
REMARK VINA RESULT:      -7.4      3.280      7.817
REMARK  10 active torsions:
REMARK  status: ('A' for Active; 'I' for Inactive)
REMARK    1  A    between atoms: C_3  and  C_19 
REMARK    2  A    between atoms: C_6  and  S_10 
REMARK    3  A    between atoms: C_7  and  C_9 
REMARK    4  A    between atoms: C_9  and  N_18 
REMARK    5  A    between atoms: S_10  and  C_11 
REMARK    6  A    between atoms: C_11  and  C_12 
REMARK    7  A    between atoms: N_18  and  C_20 
REMARK    8  A    between atoms: C_20  and  C_21 
REMARK    9  A    between atoms: C_21  and  N_22 
REMARK   10  A    between atoms: C_31  and  O_35 
ROOT
HETATM    1  C           1     173.726 189.162 283.378  0.00  0.00     0.101 A 
HETATM    2  C           1     172.664 189.228 282.491  0.00  0.00    -0.010 A 
HETATM    3  N           1     174.636 188.163 283.388  0.00  0.00    -0.359 N 
ATOM      4  HN          1     175.406 188.146 284.057  1.00  0.00     0.166 HD
HETATM    5  C           1     174.474 187.187 282.469  0.00  0.00     0.077 A 
HETATM    6  C           1     173.444 187.165 281.540  0.00  0.00     0.004 A 
HETATM    7  C           1     172.524 188.208 281.555  0.00  0.00     0.025 A 
ENDROOT
BRANCH   6   8
HETATM    8  C           1     173.327 186.050 280.549  0.00  0.00     0.311 C 
BRANCH   8   9
HETATM    9  N           1     172.317 186.375 279.578  0.00  0.00     0.089 N 
HETATM   10  H           1     171.401 186.371 280.027  0.00  0.00     0.316 HD
BRANCH   9  11
HETATM   11  C           1     172.354 185.367 278.554  0.00  0.00     0.300 C 
BRANCH  11  12
HETATM   12  C           1     172.798 185.993 277.239  0.00  0.00     0.302 C 
BRANCH  12  13
HETATM   13  N           1     174.168 185.642 276.978  0.00  0.00     0.093 N 
HETATM   14  C           1     174.278 185.392 275.531  0.00  0.00     0.302 C 
HETATM   15  C           1     175.741 185.253 275.054  0.00  0.00     0.302 C 
HETATM   16  N           1     176.576 186.412 275.417  0.00  0.00     0.087 N 
HETATM   17  C           1     177.939 186.048 275.139  0.00  0.00     0.310 C 
HETATM   18  C           1     176.465 186.662 276.865  0.00  0.00     0.302 C 
HETATM   19  C           1     175.003 186.800 277.341  0.00  0.00     0.302 C 
ENDBRANCH  12  13
ENDBRANCH  11  12
ENDBRANCH   9  11
ENDBRANCH   8   9
ENDBRANCH   6   8
BRANCH   5  20
HETATM   20  S           1     175.673 185.825 282.447  0.00  0.00    -0.107 SA
BRANCH  20  21
HETATM   21  C           1     174.476 184.592 283.030  0.00  0.00     0.119 C 
BRANCH  21  22
HETATM   22  C           1     174.059 184.922 284.429  0.00  0.00    -0.049 A 
HETATM   23  C           1     172.731 185.250 284.703  0.00  0.00     0.008 A 
HETATM   24  C           1     172.343 185.556 286.007  0.00  0.00     0.001 A 
HETATM   25  C           1     173.283 185.535 287.038  0.00  0.00     0.000 A 
HETATM   26  C           1     174.611 185.207 286.764  0.00  0.00     0.001 A 
HETATM   27  C           1     174.999 184.902 285.460  0.00  0.00     0.008 A 
ENDBRANCH  21  22
ENDBRANCH  20  21
ENDBRANCH   5  20
BRANCH   2  28
HETATM   28  C           1     171.797 190.245 282.532  0.00  0.00    -0.021 A 
HETATM   29  C           1     172.025 191.387 281.764  0.00  0.00     0.015 A 
HETATM   30  C           1     171.121 192.448 281.808  0.00  0.00     0.041 A 
HETATM   31  C           1     169.990 192.368 282.621  0.00  0.00     0.106 A 
HETATM   32  C           1     169.763 191.227 283.388  0.00  0.00     0.150 A 
HETATM   33  F           1     168.692 191.151 284.157  0.00  0.00    -0.203 F 
HETATM   34  C           1     170.666 190.165 283.344  0.00  0.00     0.057 A 
BRANCH  31  35
HETATM   35  O           1     169.112 193.399 282.663  0.00  0.00    -0.353 OA
HETATM   36  C           1     168.982 193.995 281.401  0.00  0.00     0.210 C 
ENDBRANCH  31  35
ENDBRANCH   2  28
TORSDOF 10
ENDMDL
MODEL 7
REMARK VINA RESULT:      -7.4      7.524     10.622
REMARK  10 active torsions:
REMARK  status: ('A' for Active; 'I' for Inactive)
REMARK    1  A    between atoms: C_3  and  C_19 
REMARK    2  A    between atoms: C_6  and  S_10 
REMARK    3  A    between atoms: C_7  and  C_9 
REMARK    4  A    between atoms: C_9  and  N_18 
REMARK    5  A    between atoms: S_10  and  C_11 
REMARK    6  A    between atoms: C_11  and  C_12 
REMARK    7  A    between atoms: N_18  and  C_20 
REMARK    8  A    between atoms: C_20  and  C_21 
REMARK    9  A    between atoms: C_21  and  N_22 
REMARK   10  A    between atoms: C_31  and  O_35 
ROOT
HETATM    1  C           1     176.302 184.360 270.761  0.00  0.00     0.101 A 
HETATM    2  C           1     175.760 185.449 271.425  0.00  0.00    -0.010 A 
HETATM    3  N           1     176.267 184.204 269.419  0.00  0.00    -0.359 N 
ATOM      4  HN          1     176.676 183.388 268.964  1.00  0.00     0.166 HD
HETATM    5  C           1     175.663 185.184 268.712  0.00  0.00     0.077 A 
HETATM    6  C           1     175.093 186.310 269.285  0.00  0.00     0.004 A 
HETATM    7  C           1     175.145 186.441 270.668  0.00  0.00     0.025 A 
ENDROOT
BRANCH   6   8
HETATM    8  C           1     174.440 187.356 268.437  0.00  0.00     0.311 C 
BRANCH   8   9
HETATM    9  N           1     175.356 188.446 268.230  0.00  0.00     0.089 N 
HETATM   10  H           1     176.231 188.252 268.716  0.00  0.00     0.316 HD
BRANCH   9  11
HETATM   11  C           1     174.756 189.632 268.779  0.00  0.00     0.300 C 
BRANCH  11  12
HETATM   12  C           1     175.525 190.063 270.020  0.00  0.00     0.302 C 
BRANCH  12  13
HETATM   13  N           1     174.654 190.808 270.890  0.00  0.00     0.093 N 
HETATM   14  C           1     175.272 192.131 271.085  0.00  0.00     0.302 C 
HETATM   15  C           1     174.334 193.136 271.788  0.00  0.00     0.302 C 
HETATM   16  N           1     173.042 193.295 271.098  0.00  0.00     0.087 N 
HETATM   17  C           1     172.189 194.051 271.975  0.00  0.00     0.310 C 
HETATM   18  C           1     172.424 191.972 270.903  0.00  0.00     0.302 C 
HETATM   19  C           1     173.362 190.967 270.200  0.00  0.00     0.302 C 
ENDBRANCH  12  13
ENDBRANCH  11  12
ENDBRANCH   9  11
ENDBRANCH   8   9
ENDBRANCH   6   8
BRANCH   5  20
HETATM   20  S           1     175.594 185.016 266.906  0.00  0.00    -0.107 SA
BRANCH  20  21
HETATM   21  C           1     176.910 183.768 266.844  0.00  0.00     0.119 C 
BRANCH  21  22
HETATM   22  C           1     177.121 183.334 265.427  0.00  0.00    -0.049 A 
HETATM   23  C           1     176.628 184.110 264.378  0.00  0.00     0.008 A 
HETATM   24  C           1     176.826 183.706 263.059  0.00  0.00     0.001 A 
HETATM   25  C           1     177.517 182.524 262.787  0.00  0.00     0.000 A 
HETATM   26  C           1     178.010 181.748 263.836  0.00  0.00     0.001 A 
HETATM   27  C           1     177.812 182.153 265.155  0.00  0.00     0.008 A 
ENDBRANCH  21  22
ENDBRANCH  20  21
ENDBRANCH   5  20
BRANCH   2  28
HETATM   28  C           1     175.828 185.544 272.757  0.00  0.00    -0.021 A 
HETATM   29  C           1     174.757 185.117 273.541  0.00  0.00     0.015 A 
HETATM   30  C           1     174.828 185.217 274.931  0.00  0.00     0.041 A 
HETATM   31  C           1     175.969 185.743 275.536  0.00  0.00     0.106 A 
HETATM   32  C           1     177.040 186.170 274.750  0.00  0.00     0.150 A 
HETATM   33  F           1     178.120 186.667 275.323  0.00  0.00    -0.203 F 
HETATM   34  C           1     176.969 186.070 273.362  0.00  0.00     0.057 A 
BRANCH  31  35
HETATM   35  O           1     176.038 185.839 276.885  0.00  0.00    -0.353 OA
HETATM   36  C           1     175.104 186.767 277.367  0.00  0.00     0.210 C 
ENDBRANCH  31  35
ENDBRANCH   2  28
TORSDOF 10
ENDMDL
MODEL 8
REMARK VINA RESULT:      -7.2      4.177      8.128
REMARK  10 active torsions:
REMARK  status: ('A' for Active; 'I' for Inactive)
REMARK    1  A    between atoms: C_3  and  C_19 
REMARK    2  A    between atoms: C_6  and  S_10 
REMARK    3  A    between atoms: C_7  and  C_9 
REMARK    4  A    between atoms: C_9  and  N_18 
REMARK    5  A    between atoms: S_10  and  C_11 
REMARK    6  A    between atoms: C_11  and  C_12 
REMARK    7  A    between atoms: N_18  and  C_20 
REMARK    8  A    between atoms: C_20  and  C_21 
REMARK    9  A    between atoms: C_21  and  N_22 
REMARK   10  A    between atoms: C_31  and  O_35 
ROOT
HETATM    1  C           1     175.304 186.709 277.839  0.00  0.00     0.101 A 
HETATM    2  C           1     174.479 186.195 276.851  0.00  0.00    -0.010 A 
HETATM    3  N           1     174.891 186.984 279.095  0.00  0.00    -0.359 N 
ATOM      4  HN          1     175.527 187.363 279.797  1.00  0.00     0.166 HD
HETATM    5  C           1     173.594 186.733 279.375  0.00  0.00     0.077 A 
HETATM    6  C           1     172.692 186.220 278.455  0.00  0.00     0.004 A 
HETATM    7  C           1     173.148 185.947 277.170  0.00  0.00     0.025 A 
ENDROOT
BRANCH   6   8
HETATM    8  C           1     171.268 185.967 278.836  0.00  0.00     0.311 C 
BRANCH   8   9
HETATM    9  N           1     170.447 185.972 277.655  0.00  0.00     0.089 N 
HETATM   10  H           1     171.027 185.786 276.837  0.00  0.00     0.316 HD
BRANCH   9  11
HETATM   11  C           1     169.858 187.279 277.537  0.00  0.00     0.300 C 
BRANCH  11  12
HETATM   12  C           1     170.036 187.791 276.114  0.00  0.00     0.302 C 
BRANCH  12  13
HETATM   13  N           1     171.080 188.779 276.086  0.00  0.00     0.093 N 
HETATM   14  C           1     171.925 188.477 274.917  0.00  0.00     0.302 C 
HETATM   15  C           1     172.940 189.598 274.604  0.00  0.00     0.302 C 
HETATM   16  N           1     172.305 190.915 274.423  0.00  0.00     0.087 N 
HETATM   17  C           1     173.363 191.888 274.385  0.00  0.00     0.310 C 
HETATM   18  C           1     171.460 191.216 275.592  0.00  0.00     0.302 C 
HETATM   19  C           1     170.445 190.096 275.906  0.00  0.00     0.302 C 
ENDBRANCH  12  13
ENDBRANCH  11  12
ENDBRANCH   9  11
ENDBRANCH   8   9
ENDBRANCH   6   8
BRANCH   5  20
HETATM   20  S           1     172.997 187.088 281.051  0.00  0.00    -0.107 SA
BRANCH  20  21
HETATM   21  C           1     174.469 186.402 281.859  0.00  0.00     0.119 C 
BRANCH  21  22
HETATM   22  C           1     174.102 185.887 283.216  0.00  0.00    -0.049 A 
HETATM   23  C           1     172.780 185.963 283.657  0.00  0.00     0.008 A 
HETATM   24  C           1     172.438 185.482 284.920  0.00  0.00     0.001 A 
HETATM   25  C           1     173.417 184.925 285.743  0.00  0.00     0.000 A 
HETATM   26  C           1     174.738 184.848 285.302  0.00  0.00     0.001 A 
HETATM   27  C           1     175.080 185.329 284.039  0.00  0.00     0.008 A 
ENDBRANCH  21  22
ENDBRANCH  20  21
ENDBRANCH   5  20
BRANCH   2  28
HETATM   28  C           1     174.950 185.943 275.626  0.00  0.00    -0.021 A 
HETATM   29  C           1     174.108 185.408 274.652  0.00  0.00     0.015 A 
HETATM   30  C           1     174.601 185.146 273.373  0.00  0.00     0.041 A 
HETATM   31  C           1     175.934 185.418 273.069  0.00  0.00     0.106 A 
HETATM   32  C           1     176.776 185.953 274.044  0.00  0.00     0.150 A 
HETATM   33  F           1     178.038 186.211 273.756  0.00  0.00    -0.203 F 
HETATM   34  C           1     176.284 186.216 275.322  0.00  0.00     0.057 A 
BRANCH  31  35
HETATM   35  O           1     176.412 185.163 271.827  0.00  0.00    -0.353 OA
HETATM   36  C           1     175.480 185.536 270.849  0.00  0.00     0.210 C 
ENDBRANCH  31  35
ENDBRANCH   2  28
TORSDOF 10
ENDMDL
MODEL 9
REMARK VINA RESULT:      -7.2      5.809      8.895
REMARK  10 active torsions:
REMARK  status: ('A' for Active; 'I' for Inactive)
REMARK    1  A    between atoms: C_3  and  C_19 
REMARK    2  A    between atoms: C_6  and  S_10 
REMARK    3  A    between atoms: C_7  and  C_9 
REMARK    4  A    between atoms: C_9  and  N_18 
REMARK    5  A    between atoms: S_10  and  C_11 
REMARK    6  A    between atoms: C_11  and  C_12 
REMARK    7  A    between atoms: N_18  and  C_20 
REMARK    8  A    between atoms: C_20  and  C_21 
REMARK    9  A    between atoms: C_21  and  N_22 
REMARK   10  A    between atoms: C_31  and  O_35 
ROOT
HETATM    1  C           1     175.867 184.930 271.007  0.00  0.00     0.101 A 
HETATM    2  C           1     175.155 185.535 272.030  0.00  0.00    -0.010 A 
HETATM    3  N           1     175.392 184.768 269.753  0.00  0.00    -0.359 N 
ATOM      4  HN          1     175.944 184.316 269.024  1.00  0.00     0.166 HD
HETATM    5  C           1     174.147 185.235 269.513  0.00  0.00     0.077 A 
HETATM    6  C           1     173.358 185.855 270.470  0.00  0.00     0.004 A 
HETATM    7  C           1     173.876 186.006 271.751  0.00  0.00     0.025 A 
ENDROOT
BRANCH   6   8
HETATM    8  C           1     171.987 186.348 270.131  0.00  0.00     0.311 C 
BRANCH   8   9
HETATM    9  N           1     171.923 187.770 270.339  0.00  0.00     0.089 N 
HETATM   10  H           1     172.838 188.112 270.635  0.00  0.00     0.316 HD
BRANCH   9  11
HETATM   11  C           1     170.960 188.018 271.378  0.00  0.00     0.300 C 
BRANCH  11  12
HETATM   12  C           1     171.365 189.260 272.161  0.00  0.00     0.302 C 
BRANCH  12  13
HETATM   13  N           1     171.332 188.972 273.569  0.00  0.00     0.093 N 
HETATM   14  C           1     170.454 187.802 273.747  0.00  0.00     0.302 C 
HETATM   15  C           1     170.518 187.214 275.174  0.00  0.00     0.302 C 
HETATM   16  N           1     171.888 186.867 275.591  0.00  0.00     0.087 N 
HETATM   17  C           1     171.835 186.571 276.997  0.00  0.00     0.310 C 
HETATM   18  C           1     172.766 188.036 275.413  0.00  0.00     0.302 C 
HETATM   19  C           1     172.702 188.625 273.987  0.00  0.00     0.302 C 
ENDBRANCH  12  13
ENDBRANCH  11  12
ENDBRANCH   9  11
ENDBRANCH   8   9
ENDBRANCH   6   8
BRANCH   5  20
HETATM   20  S           1     173.469 185.040 267.841  0.00  0.00    -0.107 SA
BRANCH  20  21
HETATM   21  C           1     174.550 186.305 267.117  0.00  0.00     0.119 C 
BRANCH  21  22
HETATM   22  C           1     173.911 187.651 267.261  0.00  0.00    -0.049 A 
HETATM   23  C           1     174.616 188.698 267.857  0.00  0.00     0.008 A 
HETATM   24  C           1     174.021 189.952 267.990  0.00  0.00     0.001 A 
HETATM   25  C           1     172.720 190.160 267.529  0.00  0.00     0.000 A 
HETATM   26  C           1     172.016 189.114 266.934  0.00  0.00     0.001 A 
HETATM   27  C           1     172.611 187.860 266.801  0.00  0.00     0.008 A 
ENDBRANCH  21  22
ENDBRANCH  20  21
ENDBRANCH   5  20
BRANCH   2  28
HETATM   28  C           1     175.683 185.664 273.251  0.00  0.00    -0.021 A 
HETATM   29  C           1     176.962 186.197 273.405  0.00  0.00     0.015 A 
HETATM   30  C           1     177.513 186.331 274.679  0.00  0.00     0.041 A 
HETATM   31  C           1     176.785 185.932 275.800  0.00  0.00     0.106 A 
HETATM   32  C           1     175.506 185.400 275.646  0.00  0.00     0.150 A 
HETATM   33  F           1     174.816 185.023 276.706  0.00  0.00    -0.203 F 
HETATM   34  C           1     174.955 185.266 274.372  0.00  0.00     0.057 A 
BRANCH  31  35
HETATM   35  O           1     177.320 186.062 277.038  0.00  0.00    -0.353 OA
HETATM   36  C           1     178.541 185.379 277.127  0.00  0.00     0.210 C 
ENDBRANCH  31  35
ENDBRANCH   2  28
TORSDOF 10
ENDMDL
