MODEL 1
REMARK VINA RESULT:      -8.0      0.000      0.000
REMARK  10 active torsions:
REMARK  status: ('A' for Active; 'I' for Inactive)
REMARK    1  A    between atoms: C2_2  and  C3_3 
REMARK    2  A    between atoms: C3_3  and  N1_4 
REMARK    3  A    between atoms: C8_9  and  C9_10 
REMARK    4  A    between atoms: C9_10  and  C10_11 
REMARK    5  A    between atoms: C10_11  and  N2_12 
REMARK    6  A    between atoms: N2_12  and  C11_13 
REMARK    7  A    between atoms: C11_13  and  C12_14 
REMARK    8  A    between atoms: C20_23  and  S1_24 
REMARK    9  A    between atoms: S1_24  and  C21_25 
REMARK   10  A    between atoms: C21_25  and  C22_26 
ROOT
HETATM    1  C12 UNL     1     173.283 187.491 280.641  1.00  0.00     0.006 A 
HETATM    2  C13 UNL     1     173.348 188.627 281.467  1.00  0.00     0.025 A 
HETATM    3  C14 UNL     1     172.371 189.624 281.376  1.00  0.00    -0.007 A 
HETATM    4  C15 UNL     1     172.419 190.768 282.185  1.00  0.00     0.014 A 
HETATM    5  C16 UNL     1     171.434 191.752 282.060  1.00  0.00     0.001 A 
HETATM    6  C17 UNL     1     170.398 191.599 281.133  1.00  0.00     0.002 A 
HETATM    7  C18 UNL     1     170.337 190.456 280.330  1.00  0.00     0.032 A 
HETATM    8  C19 UNL     1     171.321 189.468 280.447  1.00  0.00     0.068 A 
HETATM    9  N3  UNL     1     171.269 188.360 279.666  1.00  0.00    -0.241 NA
HETATM   10  C20 UNL     1     172.213 187.383 279.723  1.00  0.00     0.102 A 
ENDROOT
BRANCH   1  11
HETATM   11  C11 UNL     1     174.339 186.414 280.776  1.00  0.00     0.311 C 
BRANCH  11  12
HETATM   12  N2  UNL     1     175.431 186.869 281.646  1.00  0.00     0.087 N 
HETATM   13  H21 UNL     1     175.120 187.748 282.124  1.00  0.00     0.316 HD
BRANCH  12  14
HETATM   14  C10 UNL     1     175.763 185.871 282.681  1.00  0.00     0.270 C 
BRANCH  14  15
HETATM   15  C9  UNL     1     174.600 184.886 282.862  1.00  0.00     0.034 C 
BRANCH  15  16
HETATM   16  C8  UNL     1     173.939 184.978 284.256  1.00  0.00    -0.010 C 
HETATM   17  C5  UNL     1     173.192 186.318 284.464  1.00  0.00     0.035 C 
HETATM   18  C4  UNL     1     172.993 186.650 285.956  1.00  0.00     0.272 C 
HETATM   19  N1  UNL     1     172.970 185.409 286.757  1.00  0.00     0.088 N 
HETATM   20  C6  UNL     1     174.311 184.780 286.768  1.00  0.00     0.272 C 
HETATM   21  C7  UNL     1     174.977 184.769 285.372  1.00  0.00     0.035 C 
BRANCH  19  22
HETATM   22  C3  UNL     1     172.485 185.656 288.130  1.00  0.00     0.272 C 
BRANCH  22  23
HETATM   23  C2  UNL     1     173.584 186.322 288.967  1.00  0.00     0.026 C 
HETATM   24  C1  UNL     1     173.794 185.596 290.292  1.00  0.00     0.007 C 
ENDBRANCH  22  23
ENDBRANCH  19  22
ENDBRANCH  15  16
ENDBRANCH  14  15
ENDBRANCH  12  14
ENDBRANCH  11  12
ENDBRANCH   1  11
BRANCH  10  25
HETATM   25  S1  UNL     1     172.036 185.975 278.619  1.00  0.00    -0.105 SA
BRANCH  25  26
HETATM   26  C21 UNL     1     172.626 186.872 277.137  1.00  0.00     0.119 C 
BRANCH  26  27
HETATM   27  C22 UNL     1     173.974 186.354 276.717  1.00  0.00    -0.049 A 
HETATM   28  C23 UNL     1     175.148 186.854 277.309  1.00  0.00     0.008 A 
HETATM   29  C24 UNL     1     176.401 186.412 276.871  1.00  0.00     0.001 A 
HETATM   30  C25 UNL     1     176.489 185.459 275.853  1.00  0.00     0.000 A 
HETATM   31  C26 UNL     1     175.327 184.945 275.271  1.00  0.00     0.001 A 
HETATM   32  C27 UNL     1     174.073 185.389 275.700  1.00  0.00     0.008 A 
ENDBRANCH  26  27
ENDBRANCH  25  26
ENDBRANCH  10  25
TORSDOF 10
ENDMDL
MODEL 2
REMARK VINA RESULT:      -7.8      1.831      5.381
REMARK  10 active torsions:
REMARK  status: ('A' for Active; 'I' for Inactive)
REMARK    1  A    between atoms: C2_2  and  C3_3 
REMARK    2  A    between atoms: C3_3  and  N1_4 
REMARK    3  A    between atoms: C8_9  and  C9_10 
REMARK    4  A    between atoms: C9_10  and  C10_11 
REMARK    5  A    between atoms: C10_11  and  N2_12 
REMARK    6  A    between atoms: N2_12  and  C11_13 
REMARK    7  A    between atoms: C11_13  and  C12_14 
REMARK    8  A    between atoms: C20_23  and  S1_24 
REMARK    9  A    between atoms: S1_24  and  C21_25 
REMARK   10  A    between atoms: C21_25  and  C22_26 
ROOT
HETATM    1  C12 UNL     1     174.204 186.433 278.351  1.00  0.00     0.006 A 
HETATM    2  C13 UNL     1     175.466 186.782 277.839  1.00  0.00     0.025 A 
HETATM    3  C14 UNL     1     175.826 186.419 276.537  1.00  0.00    -0.007 A 
HETATM    4  C15 UNL     1     177.082 186.750 276.008  1.00  0.00     0.014 A 
HETATM    5  C16 UNL     1     177.416 186.360 274.708  1.00  0.00     0.001 A 
HETATM    6  C17 UNL     1     176.500 185.642 273.930  1.00  0.00     0.002 A 
HETATM    7  C18 UNL     1     175.243 185.316 274.447  1.00  0.00     0.032 A 
HETATM    8  C19 UNL     1     174.903 185.701 275.749  1.00  0.00     0.068 A 
HETATM    9  N3  UNL     1     173.685 185.382 276.256  1.00  0.00    -0.241 NA
HETATM   10  C20 UNL     1     173.315 185.710 277.523  1.00  0.00     0.102 A 
ENDROOT
BRANCH   1  11
HETATM   11  C11 UNL     1     173.829 186.861 279.754  1.00  0.00     0.311 C 
BRANCH  11  12
HETATM   12  N2  UNL     1     175.020 187.291 280.498  1.00  0.00     0.087 N 
HETATM   13  H21 UNL     1     174.904 188.305 280.737  1.00  0.00     0.316 HD
BRANCH  12  14
HETATM   14  C10 UNL     1     175.188 186.535 281.753  1.00  0.00     0.270 C 
BRANCH  14  15
HETATM   15  C9  UNL     1     174.016 185.562 281.949  1.00  0.00     0.034 C 
BRANCH  15  16
HETATM   16  C8  UNL     1     173.662 185.331 283.436  1.00  0.00    -0.010 C 
HETATM   17  C5  UNL     1     172.800 186.478 284.019  1.00  0.00     0.035 C 
HETATM   18  C4  UNL     1     172.881 186.545 285.556  1.00  0.00     0.272 C 
HETATM   19  N1  UNL     1     173.201 185.213 286.110  1.00  0.00     0.088 N 
HETATM   20  C6  UNL     1     174.586 184.829 285.755  1.00  0.00     0.272 C 
HETATM   21  C7  UNL     1     174.934 185.139 284.280  1.00  0.00     0.035 C 
BRANCH  19  22
HETATM   22  C3  UNL     1     172.991 185.166 287.571  1.00  0.00     0.272 C 
BRANCH  22  23
HETATM   23  C2  UNL     1     174.112 185.926 288.290  1.00  0.00     0.026 C 
HETATM   24  C1  UNL     1     174.041 185.727 289.801  1.00  0.00     0.007 C 
ENDBRANCH  22  23
ENDBRANCH  19  22
ENDBRANCH  15  16
ENDBRANCH  14  15
ENDBRANCH  12  14
ENDBRANCH  11  12
ENDBRANCH   1  11
BRANCH  10  25
HETATM   25  S1  UNL     1     171.679 185.211 278.077  1.00  0.00    -0.105 SA
BRANCH  25  26
HETATM   26  C21 UNL     1     170.790 186.401 277.010  1.00  0.00     0.119 C 
BRANCH  26  27
HETATM   27  C22 UNL     1     170.064 187.416 277.851  1.00  0.00    -0.049 A 
HETATM   28  C23 UNL     1     168.659 187.479 277.840  1.00  0.00     0.008 A 
HETATM   29  C24 UNL     1     167.993 188.463 278.578  1.00  0.00     0.001 A 
HETATM   30  C25 UNL     1     168.722 189.378 279.341  1.00  0.00     0.000 A 
HETATM   31  C26 UNL     1     170.118 189.311 279.371  1.00  0.00     0.001 A 
HETATM   32  C27 UNL     1     170.789 188.334 278.630  1.00  0.00     0.008 A 
ENDBRANCH  26  27
ENDBRANCH  25  26
ENDBRANCH  10  25
TORSDOF 10
ENDMDL
MODEL 3
REMARK VINA RESULT:      -7.7      6.338     10.929
REMARK  10 active torsions:
REMARK  status: ('A' for Active; 'I' for Inactive)
REMARK    1  A    between atoms: C2_2  and  C3_3 
REMARK    2  A    between atoms: C3_3  and  N1_4 
REMARK    3  A    between atoms: C8_9  and  C9_10 
REMARK    4  A    between atoms: C9_10  and  C10_11 
REMARK    5  A    between atoms: C10_11  and  N2_12 
REMARK    6  A    between atoms: N2_12  and  C11_13 
REMARK    7  A    between atoms: C11_13  and  C12_14 
REMARK    8  A    between atoms: C20_23  and  S1_24 
REMARK    9  A    between atoms: S1_24  and  C21_25 
REMARK   10  A    between atoms: C21_25  and  C22_26 
ROOT
HETATM    1  C12 UNL     1     175.731 186.325 271.557  1.00  0.00     0.006 A 
HETATM    2  C13 UNL     1     176.094 184.969 271.628  1.00  0.00     0.025 A 
HETATM    3  C14 UNL     1     175.903 184.127 270.528  1.00  0.00    -0.007 A 
HETATM    4  C15 UNL     1     176.252 182.769 270.578  1.00  0.00     0.014 A 
HETATM    5  C16 UNL     1     176.035 181.952 269.465  1.00  0.00     0.001 A 
HETATM    6  C17 UNL     1     175.474 182.483 268.299  1.00  0.00     0.002 A 
HETATM    7  C18 UNL     1     175.132 183.838 268.237  1.00  0.00     0.032 A 
HETATM    8  C19 UNL     1     175.344 184.661 269.348  1.00  0.00     0.068 A 
HETATM    9  N3  UNL     1     175.009 185.975 269.295  1.00  0.00    -0.241 NA
HETATM   10  C20 UNL     1     175.171 186.812 270.354  1.00  0.00     0.102 A 
ENDROOT
BRANCH   1  11
HETATM   11  C11 UNL     1     175.972 187.221 272.753  1.00  0.00     0.311 C 
BRANCH  11  12
HETATM   12  N2  UNL     1     177.261 186.904 273.384  1.00  0.00     0.087 N 
HETATM   13  H21 UNL     1     177.976 187.573 273.014  1.00  0.00     0.316 HD
BRANCH  12  14
HETATM   14  C10 UNL     1     177.205 187.048 274.851  1.00  0.00     0.270 C 
BRANCH  14  15
HETATM   15  C9  UNL     1     177.059 185.672 275.515  1.00  0.00     0.034 C 
BRANCH  15  16
HETATM   16  C8  UNL     1     175.748 185.524 276.320  1.00  0.00    -0.010 C 
HETATM   17  C5  UNL     1     174.529 185.237 275.409  1.00  0.00     0.035 C 
HETATM   18  C4  UNL     1     173.195 185.603 276.088  1.00  0.00     0.272 C 
HETATM   19  N1  UNL     1     173.330 185.523 277.557  1.00  0.00     0.088 N 
HETATM   20  C6  UNL     1     174.219 186.600 278.050  1.00  0.00     0.272 C 
HETATM   21  C7  UNL     1     175.487 186.772 277.181  1.00  0.00     0.035 C 
BRANCH  19  22
HETATM   22  C3  UNL     1     172.014 185.568 278.228  1.00  0.00     0.272 C 
BRANCH  22  23
HETATM   23  C2  UNL     1     170.989 186.273 277.332  1.00  0.00     0.026 C 
HETATM   24  C1  UNL     1     170.569 187.618 277.917  1.00  0.00     0.007 C 
ENDBRANCH  22  23
ENDBRANCH  19  22
ENDBRANCH  15  16
ENDBRANCH  14  15
ENDBRANCH  12  14
ENDBRANCH  11  12
ENDBRANCH   1  11
BRANCH  10  25
HETATM   25  S1  UNL     1     174.669 188.527 270.156  1.00  0.00    -0.105 SA
BRANCH  25  26
HETATM   26  C21 UNL     1     174.818 188.517 268.332  1.00  0.00     0.119 C 
BRANCH  26  27
HETATM   27  C22 UNL     1     173.508 188.897 267.699  1.00  0.00    -0.049 A 
HETATM   28  C23 UNL     1     173.019 190.212 267.803  1.00  0.00     0.008 A 
HETATM   29  C24 UNL     1     171.772 190.544 267.263  1.00  0.00     0.001 A 
HETATM   30  C25 UNL     1     171.015 189.573 266.603  1.00  0.00     0.000 A 
HETATM   31  C26 UNL     1     171.502 188.269 266.480  1.00  0.00     0.001 A 
HETATM   32  C27 UNL     1     172.744 187.930 267.025  1.00  0.00     0.008 A 
ENDBRANCH  26  27
ENDBRANCH  25  26
ENDBRANCH  10  25
TORSDOF 10
ENDMDL
MODEL 4
REMARK VINA RESULT:      -7.7      3.454      9.631
REMARK  10 active torsions:
REMARK  status: ('A' for Active; 'I' for Inactive)
REMARK    1  A    between atoms: C2_2  and  C3_3 
REMARK    2  A    between atoms: C3_3  and  N1_4 
REMARK    3  A    between atoms: C8_9  and  C9_10 
REMARK    4  A    between atoms: C9_10  and  C10_11 
REMARK    5  A    between atoms: C10_11  and  N2_12 
REMARK    6  A    between atoms: N2_12  and  C11_13 
REMARK    7  A    between atoms: C11_13  and  C12_14 
REMARK    8  A    between atoms: C20_23  and  S1_24 
REMARK    9  A    between atoms: S1_24  and  C21_25 
REMARK   10  A    between atoms: C21_25  and  C22_26 
ROOT
HETATM    1  C12 UNL     1     172.693 186.059 288.836  1.00  0.00     0.006 A 
HETATM    2  C13 UNL     1     172.970 185.655 290.153  1.00  0.00     0.025 A 
HETATM    3  C14 UNL     1     172.221 186.161 291.221  1.00  0.00    -0.007 A 
HETATM    4  C15 UNL     1     172.484 185.777 292.544  1.00  0.00     0.014 A 
HETATM    5  C16 UNL     1     171.725 186.311 293.589  1.00  0.00     0.001 A 
HETATM    6  C17 UNL     1     170.701 187.226 293.320  1.00  0.00     0.002 A 
HETATM    7  C18 UNL     1     170.426 187.606 292.003  1.00  0.00     0.032 A 
HETATM    8  C19 UNL     1     171.183 187.078 290.952  1.00  0.00     0.068 A 
HETATM    9  N3  UNL     1     170.923 187.448 289.673  1.00  0.00    -0.241 NA
HETATM   10  C20 UNL     1     171.645 186.984 288.619  1.00  0.00     0.102 A 
ENDROOT
BRANCH   1  11
HETATM   11  C11 UNL     1     173.502 185.478 287.695  1.00  0.00     0.311 C 
BRANCH  11  12
HETATM   12  N2  UNL     1     174.924 185.810 287.850  1.00  0.00     0.087 N 
HETATM   13  H21 UNL     1     175.290 185.290 288.682  1.00  0.00     0.316 HD
BRANCH  12  14
HETATM   14  C10 UNL     1     175.713 185.412 286.669  1.00  0.00     0.270 C 
BRANCH  14  15
HETATM   15  C9  UNL     1     174.921 184.417 285.810  1.00  0.00     0.034 C 
BRANCH  15  16
HETATM   16  C8  UNL     1     174.709 184.903 284.359  1.00  0.00    -0.010 C 
HETATM   17  C5  UNL     1     175.644 186.082 283.993  1.00  0.00     0.035 C 
HETATM   18  C4  UNL     1     175.113 186.901 282.801  1.00  0.00     0.272 C 
HETATM   19  N1  UNL     1     174.260 186.055 281.940  1.00  0.00     0.088 N 
HETATM   20  C6  UNL     1     173.005 185.706 282.645  1.00  0.00     0.272 C 
HETATM   21  C7  UNL     1     173.241 185.294 284.117  1.00  0.00     0.035 C 
BRANCH  19  22
HETATM   22  C3  UNL     1     173.981 186.705 280.643  1.00  0.00     0.272 C 
BRANCH  22  23
HETATM   23  C2  UNL     1     172.903 185.924 279.882  1.00  0.00     0.026 C 
HETATM   24  C1  UNL     1     172.215 186.797 278.837  1.00  0.00     0.007 C 
ENDBRANCH  22  23
ENDBRANCH  19  22
ENDBRANCH  15  16
ENDBRANCH  14  15
ENDBRANCH  12  14
ENDBRANCH  11  12
ENDBRANCH   1  11
BRANCH  10  25
HETATM   25  S1  UNL     1     171.208 187.569 286.976  1.00  0.00    -0.105 SA
BRANCH  25  26
HETATM   26  C21 UNL     1     169.462 187.914 287.400  1.00  0.00     0.119 C 
BRANCH  26  27
HETATM   27  C22 UNL     1     169.086 189.306 286.972  1.00  0.00    -0.049 A 
HETATM   28  C23 UNL     1     168.912 189.613 285.611  1.00  0.00     0.008 A 
HETATM   29  C24 UNL     1     168.620 190.924 285.216  1.00  0.00     0.001 A 
HETATM   30  C25 UNL     1     168.486 191.929 286.176  1.00  0.00     0.000 A 
HETATM   31  C26 UNL     1     168.641 191.629 287.532  1.00  0.00     0.001 A 
HETATM   32  C27 UNL     1     168.939 190.323 287.931  1.00  0.00     0.008 A 
ENDBRANCH  26  27
ENDBRANCH  25  26
ENDBRANCH  10  25
TORSDOF 10
ENDMDL
MODEL 5
REMARK VINA RESULT:      -7.5      7.989     11.799
REMARK  10 active torsions:
REMARK  status: ('A' for Active; 'I' for Inactive)
REMARK    1  A    between atoms: C2_2  and  C3_3 
REMARK    2  A    between atoms: C3_3  and  N1_4 
REMARK    3  A    between atoms: C8_9  and  C9_10 
REMARK    4  A    between atoms: C9_10  and  C10_11 
REMARK    5  A    between atoms: C10_11  and  N2_12 
REMARK    6  A    between atoms: N2_12  and  C11_13 
REMARK    7  A    between atoms: C11_13  and  C12_14 
REMARK    8  A    between atoms: C20_23  and  S1_24 
REMARK    9  A    between atoms: S1_24  and  C21_25 
REMARK   10  A    between atoms: C21_25  and  C22_26 
ROOT
HETATM    1  C12 UNL     1     175.359 187.146 272.480  1.00  0.00     0.006 A 
HETATM    2  C13 UNL     1     176.559 187.226 273.207  1.00  0.00     0.025 A 
HETATM    3  C14 UNL     1     176.761 186.416 274.329  1.00  0.00    -0.007 A 
HETATM    4  C15 UNL     1     177.947 186.483 275.074  1.00  0.00     0.014 A 
HETATM    5  C16 UNL     1     178.112 185.669 276.199  1.00  0.00     0.001 A 
HETATM    6  C17 UNL     1     177.098 184.785 276.583  1.00  0.00     0.002 A 
HETATM    7  C18 UNL     1     175.917 184.705 275.840  1.00  0.00     0.032 A 
HETATM    8  C19 UNL     1     175.744 185.518 274.715  1.00  0.00     0.068 A 
HETATM    9  N3  UNL     1     174.596 185.448 273.995  1.00  0.00    -0.241 NA
HETATM   10  C20 UNL     1     174.368 186.233 272.909  1.00  0.00     0.102 A 
ENDROOT
BRANCH   1  11
HETATM   11  C11 UNL     1     175.175 188.015 271.253  1.00  0.00     0.311 C 
BRANCH  11  12
HETATM   12  N2  UNL     1     175.912 189.277 271.401  1.00  0.00     0.087 N 
HETATM   13  H21 UNL     1     176.936 189.062 271.353  1.00  0.00     0.316 HD
BRANCH  12  14
HETATM   14  C10 UNL     1     175.587 190.232 270.325  1.00  0.00     0.270 C 
BRANCH  14  15
HETATM   15  C9  UNL     1     175.993 191.655 270.735  1.00  0.00     0.034 C 
BRANCH  15  16
HETATM   16  C8  UNL     1     174.783 192.589 270.962  1.00  0.00    -0.010 C 
HETATM   17  C5  UNL     1     174.807 193.250 272.362  1.00  0.00     0.035 C 
HETATM   18  C4  UNL     1     173.412 193.736 272.802  1.00  0.00     0.272 C 
HETATM   19  N1  UNL     1     172.578 194.032 271.619  1.00  0.00     0.088 N 
HETATM   20  C6  UNL     1     172.244 192.780 270.900  1.00  0.00     0.272 C 
HETATM   21  C7  UNL     1     173.458 191.834 270.753  1.00  0.00     0.035 C 
BRANCH  19  22
HETATM   22  C3  UNL     1     171.357 194.778 271.987  1.00  0.00     0.272 C 
BRANCH  22  23
HETATM   23  C2  UNL     1     170.325 193.829 272.608  1.00  0.00     0.026 C 
HETATM   24  C1  UNL     1     169.948 194.263 274.021  1.00  0.00     0.007 C 
ENDBRANCH  22  23
ENDBRANCH  19  22
ENDBRANCH  15  16
ENDBRANCH  14  15
ENDBRANCH  12  14
ENDBRANCH  11  12
ENDBRANCH   1  11
BRANCH  10  25
HETATM   25  S1  UNL     1     172.797 186.052 272.054  1.00  0.00    -0.105 SA
BRANCH  25  26
HETATM   26  C21 UNL     1     173.022 184.271 271.703  1.00  0.00     0.119 C 
BRANCH  26  27
HETATM   27  C22 UNL     1     174.224 184.059 270.825  1.00  0.00    -0.049 A 
HETATM   28  C23 UNL     1     175.254 183.187 271.222  1.00  0.00     0.008 A 
HETATM   29  C24 UNL     1     176.397 183.040 270.429  1.00  0.00     0.001 A 
HETATM   30  C25 UNL     1     176.512 183.748 269.230  1.00  0.00     0.000 A 
HETATM   31  C26 UNL     1     175.485 184.603 268.820  1.00  0.00     0.001 A 
HETATM   32  C27 UNL     1     174.344 184.759 269.613  1.00  0.00     0.008 A 
ENDBRANCH  26  27
ENDBRANCH  25  26
ENDBRANCH  10  25
TORSDOF 10
ENDMDL
MODEL 6
REMARK VINA RESULT:      -7.5      8.243     13.260
REMARK  10 active torsions:
REMARK  status: ('A' for Active; 'I' for Inactive)
REMARK    1  A    between atoms: C2_2  and  C3_3 
REMARK    2  A    between atoms: C3_3  and  N1_4 
REMARK    3  A    between atoms: C8_9  and  C9_10 
REMARK    4  A    between atoms: C9_10  and  C10_11 
REMARK    5  A    between atoms: C10_11  and  N2_12 
REMARK    6  A    between atoms: N2_12  and  C11_13 
REMARK    7  A    between atoms: C11_13  and  C12_14 
REMARK    8  A    between atoms: C20_23  and  S1_24 
REMARK    9  A    between atoms: S1_24  and  C21_25 
REMARK   10  A    between atoms: C21_25  and  C22_26 
ROOT
HETATM    1  C12 UNL     1     175.288 187.149 272.462  1.00  0.00     0.006 A 
HETATM    2  C13 UNL     1     176.478 187.265 273.200  1.00  0.00     0.025 A 
HETATM    3  C14 UNL     1     176.702 186.451 274.315  1.00  0.00    -0.007 A 
HETATM    4  C15 UNL     1     177.879 186.554 275.070  1.00  0.00     0.014 A 
HETATM    5  C16 UNL     1     178.065 185.735 276.187  1.00  0.00     0.001 A 
HETATM    6  C17 UNL     1     177.082 184.809 276.554  1.00  0.00     0.002 A 
HETATM    7  C18 UNL     1     175.910 184.693 275.801  1.00  0.00     0.032 A 
HETATM    8  C19 UNL     1     175.716 185.512 274.683  1.00  0.00     0.068 A 
HETATM    9  N3  UNL     1     174.577 185.407 273.952  1.00  0.00    -0.241 NA
HETATM   10  C20 UNL     1     174.328 186.195 272.873  1.00  0.00     0.102 A 
ENDROOT
BRANCH   1  11
HETATM   11  C11 UNL     1     175.082 188.024 271.243  1.00  0.00     0.311 C 
BRANCH  11  12
HETATM   12  N2  UNL     1     175.851 189.269 271.367  1.00  0.00     0.087 N 
HETATM   13  H21 UNL     1     176.869 189.022 271.368  1.00  0.00     0.316 HD
BRANCH  12  14
HETATM   14  C10 UNL     1     175.598 190.186 270.239  1.00  0.00     0.270 C 
BRANCH  14  15
HETATM   15  C9  UNL     1     175.258 189.389 268.972  1.00  0.00     0.034 C 
BRANCH  15  16
HETATM   16  C8  UNL     1     173.985 189.898 268.259  1.00  0.00    -0.010 C 
HETATM   17  C5  UNL     1     173.056 190.689 269.213  1.00  0.00     0.035 C 
HETATM   18  C4  UNL     1     171.603 190.742 268.702  1.00  0.00     0.272 C 
HETATM   19  N1  UNL     1     171.574 190.610 267.231  1.00  0.00     0.088 N 
HETATM   20  C6  UNL     1     171.981 189.244 266.829  1.00  0.00     0.272 C 
HETATM   21  C7  UNL     1     173.214 188.735 267.611  1.00  0.00     0.035 C 
BRANCH  19  22
HETATM   22  C3  UNL     1     170.248 190.956 266.679  1.00  0.00     0.272 C 
BRANCH  22  23
HETATM   23  C2  UNL     1     170.215 192.431 266.265  1.00  0.00     0.026 C 
HETATM   24  C1  UNL     1     169.187 193.216 267.074  1.00  0.00     0.007 C 
ENDBRANCH  22  23
ENDBRANCH  19  22
ENDBRANCH  15  16
ENDBRANCH  14  15
ENDBRANCH  12  14
ENDBRANCH  11  12
ENDBRANCH   1  11
BRANCH  10  25
HETATM   25  S1  UNL     1     172.772 185.965 272.003  1.00  0.00    -0.105 SA
BRANCH  25  26
HETATM   26  C21 UNL     1     173.055 184.192 271.656  1.00  0.00     0.119 C 
BRANCH  26  27
HETATM   27  C22 UNL     1     174.269 184.017 270.786  1.00  0.00    -0.049 A 
HETATM   28  C23 UNL     1     175.285 183.115 271.150  1.00  0.00     0.008 A 
HETATM   29  C24 UNL     1     176.439 183.000 270.368  1.00  0.00     0.001 A 
HETATM   30  C25 UNL     1     176.579 183.772 269.212  1.00  0.00     0.000 A 
HETATM   31  C26 UNL     1     175.566 184.658 268.834  1.00  0.00     0.001 A 
HETATM   32  C27 UNL     1     174.414 184.781 269.616  1.00  0.00     0.008 A 
ENDBRANCH  26  27
ENDBRANCH  25  26
ENDBRANCH  10  25
TORSDOF 10
ENDMDL
MODEL 7
REMARK VINA RESULT:      -7.4      4.228      7.209
REMARK  10 active torsions:
REMARK  status: ('A' for Active; 'I' for Inactive)
REMARK    1  A    between atoms: C2_2  and  C3_3 
REMARK    2  A    between atoms: C3_3  and  N1_4 
REMARK    3  A    between atoms: C8_9  and  C9_10 
REMARK    4  A    between atoms: C9_10  and  C10_11 
REMARK    5  A    between atoms: C10_11  and  N2_12 
REMARK    6  A    between atoms: N2_12  and  C11_13 
REMARK    7  A    between atoms: C11_13  and  C12_14 
REMARK    8  A    between atoms: C20_23  and  S1_24 
REMARK    9  A    between atoms: S1_24  and  C21_25 
REMARK   10  A    between atoms: C21_25  and  C22_26 
ROOT
HETATM    1  C12 UNL     1     173.285 188.105 273.260  1.00  0.00     0.006 A 
HETATM    2  C13 UNL     1     173.216 189.503 273.377  1.00  0.00     0.025 A 
HETATM    3  C14 UNL     1     173.897 190.324 272.472  1.00  0.00    -0.007 A 
HETATM    4  C15 UNL     1     173.848 191.722 272.574  1.00  0.00     0.014 A 
HETATM    5  C16 UNL     1     174.550 192.513 271.661  1.00  0.00     0.001 A 
HETATM    6  C17 UNL     1     175.302 191.916 270.642  1.00  0.00     0.002 A 
HETATM    7  C18 UNL     1     175.348 190.523 270.528  1.00  0.00     0.032 A 
HETATM    8  C19 UNL     1     174.649 189.725 271.440  1.00  0.00     0.068 A 
HETATM    9  N3  UNL     1     174.696 188.373 271.336  1.00  0.00    -0.241 NA
HETATM   10  C20 UNL     1     174.056 187.552 272.210  1.00  0.00     0.102 A 
ENDROOT
BRANCH   1  11
HETATM   11  C11 UNL     1     172.518 187.239 274.237  1.00  0.00     0.311 C 
BRANCH  11  12
HETATM   12  N2  UNL     1     171.789 188.072 275.201  1.00  0.00     0.087 N 
HETATM   13  H21 UNL     1     170.845 188.285 274.798  1.00  0.00     0.316 HD
BRANCH  12  14
HETATM   14  C10 UNL     1     171.597 187.382 276.491  1.00  0.00     0.270 C 
BRANCH  14  15
HETATM   15  C9  UNL     1     172.818 186.508 276.813  1.00  0.00     0.034 C 
BRANCH  15  16
HETATM   16  C8  UNL     1     173.165 186.484 278.318  1.00  0.00    -0.010 C 
HETATM   17  C5  UNL     1     172.072 187.158 279.183  1.00  0.00     0.035 C 
HETATM   18  C4  UNL     1     172.609 187.610 280.556  1.00  0.00     0.272 C 
HETATM   19  N1  UNL     1     173.763 186.777 280.952  1.00  0.00     0.088 N 
HETATM   20  C6  UNL     1     174.922 187.053 280.072  1.00  0.00     0.272 C 
HETATM   21  C7  UNL     1     174.531 187.144 278.579  1.00  0.00     0.035 C 
BRANCH  19  22
HETATM   22  C3  UNL     1     174.113 186.972 282.373  1.00  0.00     0.272 C 
BRANCH  22  23
HETATM   23  C2  UNL     1     174.979 185.808 282.869  1.00  0.00     0.026 C 
HETATM   24  C1  UNL     1     174.310 184.463 282.605  1.00  0.00     0.007 C 
ENDBRANCH  22  23
ENDBRANCH  19  22
ENDBRANCH  15  16
ENDBRANCH  14  15
ENDBRANCH  12  14
ENDBRANCH  11  12
ENDBRANCH   1  11
BRANCH  10  25
HETATM   25  S1  UNL     1     174.214 185.777 271.970  1.00  0.00    -0.105 SA
BRANCH  25  26
HETATM   26  C21 UNL     1     176.031 185.759 272.185  1.00  0.00     0.119 C 
BRANCH  26  27
HETATM   27  C22 UNL     1     176.383 185.704 273.646  1.00  0.00    -0.049 A 
HETATM   28  C23 UNL     1     177.565 186.304 274.120  1.00  0.00     0.008 A 
HETATM   29  C24 UNL     1     177.916 186.198 275.470  1.00  0.00     0.001 A 
HETATM   30  C25 UNL     1     177.085 185.509 276.356  1.00  0.00     0.000 A 
HETATM   31  C26 UNL     1     175.901 184.925 275.897  1.00  0.00     0.001 A 
HETATM   32  C27 UNL     1     175.549 185.022 274.547  1.00  0.00     0.008 A 
ENDBRANCH  26  27
ENDBRANCH  25  26
ENDBRANCH  10  25
TORSDOF 10
ENDMDL
MODEL 8
REMARK VINA RESULT:      -7.4      2.363      8.632
REMARK  10 active torsions:
REMARK  status: ('A' for Active; 'I' for Inactive)
REMARK    1  A    between atoms: C2_2  and  C3_3 
REMARK    2  A    between atoms: C3_3  and  N1_4 
REMARK    3  A    between atoms: C8_9  and  C9_10 
REMARK    4  A    between atoms: C9_10  and  C10_11 
REMARK    5  A    between atoms: C10_11  and  N2_12 
REMARK    6  A    between atoms: N2_12  and  C11_13 
REMARK    7  A    between atoms: C11_13  and  C12_14 
REMARK    8  A    between atoms: C20_23  and  S1_24 
REMARK    9  A    between atoms: S1_24  and  C21_25 
REMARK   10  A    between atoms: C21_25  and  C22_26 
ROOT
HETATM    1  C12 UNL     1     171.490 187.154 287.999  1.00  0.00     0.006 A 
HETATM    2  C13 UNL     1     171.219 187.867 289.179  1.00  0.00     0.025 A 
HETATM    3  C14 UNL     1     171.613 187.357 290.421  1.00  0.00    -0.007 A 
HETATM    4  C15 UNL     1     171.348 188.048 291.611  1.00  0.00     0.014 A 
HETATM    5  C16 UNL     1     171.743 187.504 292.837  1.00  0.00     0.001 A 
HETATM    6  C17 UNL     1     172.406 186.272 292.880  1.00  0.00     0.002 A 
HETATM    7  C18 UNL     1     172.683 185.582 291.696  1.00  0.00     0.032 A 
HETATM    8  C19 UNL     1     172.287 186.119 290.466  1.00  0.00     0.068 A 
HETATM    9  N3  UNL     1     172.549 185.449 289.316  1.00  0.00    -0.241 NA
HETATM   10  C20 UNL     1     172.165 185.915 288.098  1.00  0.00     0.102 A 
ENDROOT
BRANCH   1  11
HETATM   11  C11 UNL     1     171.076 187.740 286.666  1.00  0.00     0.311 C 
BRANCH  11  12
HETATM   12  N2  UNL     1     172.255 188.006 285.832  1.00  0.00     0.087 N 
HETATM   13  H21 UNL     1     173.003 187.322 286.099  1.00  0.00     0.316 HD
BRANCH  12  14
HETATM   14  C10 UNL     1     171.963 187.835 284.396  1.00  0.00     0.270 C 
BRANCH  14  15
HETATM   15  C9  UNL     1     173.085 188.451 283.548  1.00  0.00     0.034 C 
BRANCH  15  16
HETATM   16  C8  UNL     1     172.975 188.097 282.048  1.00  0.00    -0.010 C 
HETATM   17  C5  UNL     1     172.085 189.100 281.273  1.00  0.00     0.035 C 
HETATM   18  C4  UNL     1     171.543 188.504 279.959  1.00  0.00     0.272 C 
HETATM   19  N1  UNL     1     172.451 187.451 279.462  1.00  0.00     0.088 N 
HETATM   20  C6  UNL     1     172.413 186.274 280.361  1.00  0.00     0.272 C 
HETATM   21  C7  UNL     1     172.451 186.663 281.857  1.00  0.00     0.035 C 
BRANCH  19  22
HETATM   22  C3  UNL     1     172.134 187.070 278.071  1.00  0.00     0.272 C 
BRANCH  22  23
HETATM   23  C2  UNL     1     173.417 187.010 277.234  1.00  0.00     0.026 C 
HETATM   24  C1  UNL     1     173.747 185.578 276.821  1.00  0.00     0.007 C 
ENDBRANCH  22  23
ENDBRANCH  19  22
ENDBRANCH  15  16
ENDBRANCH  14  15
ENDBRANCH  12  14
ENDBRANCH  11  12
ENDBRANCH   1  11
BRANCH  10  25
HETATM   25  S1  UNL     1     172.559 184.920 286.653  1.00  0.00    -0.105 SA
BRANCH  25  26
HETATM   26  C21 UNL     1     174.321 185.410 286.610  1.00  0.00     0.119 C 
BRANCH  26  27
HETATM   27  C22 UNL     1     174.832 185.399 285.195  1.00  0.00    -0.049 A 
HETATM   28  C23 UNL     1     175.825 186.308 284.787  1.00  0.00     0.008 A 
HETATM   29  C24 UNL     1     176.253 186.332 283.455  1.00  0.00     0.001 A 
HETATM   30  C25 UNL     1     175.706 185.441 282.529  1.00  0.00     0.000 A 
HETATM   31  C26 UNL     1     174.731 184.523 282.931  1.00  0.00     0.001 A 
HETATM   32  C27 UNL     1     174.295 184.500 284.259  1.00  0.00     0.008 A 
ENDBRANCH  26  27
ENDBRANCH  25  26
ENDBRANCH  10  25
TORSDOF 10
ENDMDL
MODEL 9
REMARK VINA RESULT:      -7.4      2.255      3.325
REMARK  10 active torsions:
REMARK  status: ('A' for Active; 'I' for Inactive)
REMARK    1  A    between atoms: C2_2  and  C3_3 
REMARK    2  A    between atoms: C3_3  and  N1_4 
REMARK    3  A    between atoms: C8_9  and  C9_10 
REMARK    4  A    between atoms: C9_10  and  C10_11 
REMARK    5  A    between atoms: C10_11  and  N2_12 
REMARK    6  A    between atoms: N2_12  and  C11_13 
REMARK    7  A    between atoms: C11_13  and  C12_14 
REMARK    8  A    between atoms: C20_23  and  S1_24 
REMARK    9  A    between atoms: S1_24  and  C21_25 
REMARK   10  A    between atoms: C21_25  and  C22_26 
ROOT
HETATM    1  C12 UNL     1     172.571 187.033 279.060  1.00  0.00     0.006 A 
HETATM    2  C13 UNL     1     171.198 187.193 279.310  1.00  0.00     0.025 A 
HETATM    3  C14 UNL     1     170.285 187.229 278.250  1.00  0.00    -0.007 A 
HETATM    4  C15 UNL     1     168.911 187.395 278.476  1.00  0.00     0.014 A 
HETATM    5  C16 UNL     1     168.027 187.439 277.394  1.00  0.00     0.001 A 
HETATM    6  C17 UNL     1     168.508 187.317 276.085  1.00  0.00     0.002 A 
HETATM    7  C18 UNL     1     169.875 187.142 275.853  1.00  0.00     0.032 A 
HETATM    8  C19 UNL     1     170.766 187.099 276.931  1.00  0.00     0.068 A 
HETATM    9  N3  UNL     1     172.094 186.934 276.709  1.00  0.00    -0.241 NA
HETATM   10  C20 UNL     1     173.004 186.910 277.719  1.00  0.00     0.102 A 
ENDROOT
BRANCH   1  11
HETATM   11  C11 UNL     1     173.536 186.972 280.225  1.00  0.00     0.311 C 
BRANCH  11  12
HETATM   12  N2  UNL     1     173.343 185.732 280.989  1.00  0.00     0.087 N 
HETATM   13  H21 UNL     1     173.505 184.924 280.342  1.00  0.00     0.316 HD
BRANCH  12  14
HETATM   14  C10 UNL     1     174.292 185.624 282.113  1.00  0.00     0.270 C 
BRANCH  14  15
HETATM   15  C9  UNL     1     173.702 184.748 283.226  1.00  0.00     0.034 C 
BRANCH  15  16
HETATM   16  C8  UNL     1     173.629 185.469 284.591  1.00  0.00    -0.010 C 
HETATM   17  C5  UNL     1     174.816 185.098 285.514  1.00  0.00     0.035 C 
HETATM   18  C4  UNL     1     174.505 185.362 287.000  1.00  0.00     0.272 C 
HETATM   19  N1  UNL     1     173.493 186.431 287.128  1.00  0.00     0.088 N 
HETATM   20  C6  UNL     1     172.181 185.958 286.628  1.00  0.00     0.272 C 
HETATM   21  C7  UNL     1     172.294 185.177 285.298  1.00  0.00     0.035 C 
BRANCH  19  22
HETATM   22  C3  UNL     1     173.390 186.920 288.518  1.00  0.00     0.272 C 
BRANCH  22  23
HETATM   23  C2  UNL     1     172.807 185.826 289.420  1.00  0.00     0.026 C 
HETATM   24  C1  UNL     1     173.735 185.515 290.590  1.00  0.00     0.007 C 
ENDBRANCH  22  23
ENDBRANCH  19  22
ENDBRANCH  15  16
ENDBRANCH  14  15
ENDBRANCH  12  14
ENDBRANCH  11  12
ENDBRANCH   1  11
BRANCH  10  25
HETATM   25  S1  UNL     1     174.737 186.704 277.286  1.00  0.00    -0.105 SA
BRANCH  25  26
HETATM   26  C21 UNL     1     174.454 185.240 276.227  1.00  0.00     0.119 C 
BRANCH  26  27
HETATM   27  C22 UNL     1     175.160 185.403 274.909  1.00  0.00    -0.049 A 
HETATM   28  C23 UNL     1     176.444 185.976 274.853  1.00  0.00     0.008 A 
HETATM   29  C24 UNL     1     177.070 186.179 273.619  1.00  0.00     0.001 A 
HETATM   30  C25 UNL     1     176.429 185.798 272.438  1.00  0.00     0.000 A 
HETATM   31  C26 UNL     1     175.160 185.212 272.487  1.00  0.00     0.001 A 
HETATM   32  C27 UNL     1     174.527 185.014 273.717  1.00  0.00     0.008 A 
ENDBRANCH  26  27
ENDBRANCH  25  26
ENDBRANCH  10  25
TORSDOF 10
ENDMDL
